
---------- Begin Simulation Statistics ----------
sim_seconds                                  0.039485                       # Number of seconds simulated
sim_ticks                                 39485001141                       # Number of ticks simulated
final_tick                                39485001141                       # Number of ticks from beginning of simulation (restored from checkpoints and never reset)
sim_freq                                 1000000000000                       # Frequency of simulated ticks
host_inst_rate                                 155781                       # Simulator instruction rate (inst/s)
host_op_rate                                   230203                       # Simulator op (including micro ops) rate (op/s)
host_tick_rate                               15850938                       # Simulator tick rate (ticks/s)
host_mem_usage                                8680204                       # Number of bytes of host memory used
host_seconds                                  2491.02                       # Real time elapsed on the host
sim_insts                                   388054230                       # Number of instructions simulated
sim_ops                                     573439361                       # Number of ops (including micro ops) simulated
system.voltage_domain.voltage                       1                       # Voltage in Volts
system.clk_domain.clock                          1000                       # Clock period in ticks
system.mem_ctrls0.pwrStateResidencyTicks::UNDEFINED  39485001141                       # Cumulative time (in ticks) in various power states
system.mem_ctrls0.bytes_read::cpu0.inst         34304                       # Number of bytes read from this memory
system.mem_ctrls0.bytes_read::cpu0.data       6063168                       # Number of bytes read from this memory
system.mem_ctrls0.bytes_read::cpu1.inst         34880                       # Number of bytes read from this memory
system.mem_ctrls0.bytes_read::cpu1.data       6252096                       # Number of bytes read from this memory
system.mem_ctrls0.bytes_read::cpu2.inst         34560                       # Number of bytes read from this memory
system.mem_ctrls0.bytes_read::cpu2.data       6593984                       # Number of bytes read from this memory
system.mem_ctrls0.bytes_read::cpu3.inst         34624                       # Number of bytes read from this memory
system.mem_ctrls0.bytes_read::cpu3.data       6790016                       # Number of bytes read from this memory
system.mem_ctrls0.bytes_read::total          25837632                       # Number of bytes read from this memory
system.mem_ctrls0.bytes_inst_read::cpu0.inst        34304                       # Number of instructions bytes read from this memory
system.mem_ctrls0.bytes_inst_read::cpu1.inst        34880                       # Number of instructions bytes read from this memory
system.mem_ctrls0.bytes_inst_read::cpu2.inst        34560                       # Number of instructions bytes read from this memory
system.mem_ctrls0.bytes_inst_read::cpu3.inst        34624                       # Number of instructions bytes read from this memory
system.mem_ctrls0.bytes_inst_read::total       138368                       # Number of instructions bytes read from this memory
system.mem_ctrls0.bytes_written::writebacks     19105600                       # Number of bytes written to this memory
system.mem_ctrls0.bytes_written::total       19105600                       # Number of bytes written to this memory
system.mem_ctrls0.num_reads::cpu0.inst            536                       # Number of read requests responded to by this memory
system.mem_ctrls0.num_reads::cpu0.data          94737                       # Number of read requests responded to by this memory
system.mem_ctrls0.num_reads::cpu1.inst            545                       # Number of read requests responded to by this memory
system.mem_ctrls0.num_reads::cpu1.data          97689                       # Number of read requests responded to by this memory
system.mem_ctrls0.num_reads::cpu2.inst            540                       # Number of read requests responded to by this memory
system.mem_ctrls0.num_reads::cpu2.data         103031                       # Number of read requests responded to by this memory
system.mem_ctrls0.num_reads::cpu3.inst            541                       # Number of read requests responded to by this memory
system.mem_ctrls0.num_reads::cpu3.data         106094                       # Number of read requests responded to by this memory
system.mem_ctrls0.num_reads::total             403713                       # Number of read requests responded to by this memory
system.mem_ctrls0.num_writes::writebacks       298525                       # Number of write requests responded to by this memory
system.mem_ctrls0.num_writes::total            298525                       # Number of write requests responded to by this memory
system.mem_ctrls0.bw_read::cpu0.inst           868786                       # Total read bandwidth from this memory (bytes/s)
system.mem_ctrls0.bw_read::cpu0.data        153556232                       # Total read bandwidth from this memory (bytes/s)
system.mem_ctrls0.bw_read::cpu1.inst           883373                       # Total read bandwidth from this memory (bytes/s)
system.mem_ctrls0.bw_read::cpu1.data        158341036                       # Total read bandwidth from this memory (bytes/s)
system.mem_ctrls0.bw_read::cpu2.inst           875269                       # Total read bandwidth from this memory (bytes/s)
system.mem_ctrls0.bw_read::cpu2.data        166999717                       # Total read bandwidth from this memory (bytes/s)
system.mem_ctrls0.bw_read::cpu3.inst           876890                       # Total read bandwidth from this memory (bytes/s)
system.mem_ctrls0.bw_read::cpu3.data        171964437                       # Total read bandwidth from this memory (bytes/s)
system.mem_ctrls0.bw_read::total            654365740                       # Total read bandwidth from this memory (bytes/s)
system.mem_ctrls0.bw_inst_read::cpu0.inst       868786                       # Instruction read bandwidth from this memory (bytes/s)
system.mem_ctrls0.bw_inst_read::cpu1.inst       883373                       # Instruction read bandwidth from this memory (bytes/s)
system.mem_ctrls0.bw_inst_read::cpu2.inst       875269                       # Instruction read bandwidth from this memory (bytes/s)
system.mem_ctrls0.bw_inst_read::cpu3.inst       876890                       # Instruction read bandwidth from this memory (bytes/s)
system.mem_ctrls0.bw_inst_read::total         3504318                       # Instruction read bandwidth from this memory (bytes/s)
system.mem_ctrls0.bw_write::writebacks      483869810                       # Write bandwidth from this memory (bytes/s)
system.mem_ctrls0.bw_write::total           483869810                       # Write bandwidth from this memory (bytes/s)
system.mem_ctrls0.bw_total::writebacks      483869810                       # Total bandwidth to/from this memory (bytes/s)
system.mem_ctrls0.bw_total::cpu0.inst          868786                       # Total bandwidth to/from this memory (bytes/s)
system.mem_ctrls0.bw_total::cpu0.data       153556232                       # Total bandwidth to/from this memory (bytes/s)
system.mem_ctrls0.bw_total::cpu1.inst          883373                       # Total bandwidth to/from this memory (bytes/s)
system.mem_ctrls0.bw_total::cpu1.data       158341036                       # Total bandwidth to/from this memory (bytes/s)
system.mem_ctrls0.bw_total::cpu2.inst          875269                       # Total bandwidth to/from this memory (bytes/s)
system.mem_ctrls0.bw_total::cpu2.data       166999717                       # Total bandwidth to/from this memory (bytes/s)
system.mem_ctrls0.bw_total::cpu3.inst          876890                       # Total bandwidth to/from this memory (bytes/s)
system.mem_ctrls0.bw_total::cpu3.data       171964437                       # Total bandwidth to/from this memory (bytes/s)
system.mem_ctrls0.bw_total::total          1138235550                       # Total bandwidth to/from this memory (bytes/s)
system.mem_ctrls0.readReqs                     403714                       # Number of read requests accepted
system.mem_ctrls0.writeReqs                    298525                       # Number of write requests accepted
system.mem_ctrls0.readBursts                   403714                       # Number of DRAM read bursts, including those serviced by the write queue
system.mem_ctrls0.writeBursts                  298525                       # Number of DRAM write bursts, including those merged in the write queue
system.mem_ctrls0.bytesReadDRAM              22877568                       # Total number of bytes read from DRAM
system.mem_ctrls0.bytesReadWrQ                2960128                       # Total number of bytes read from write queue
system.mem_ctrls0.bytesWritten               19104064                       # Total number of bytes written to DRAM
system.mem_ctrls0.bytesReadSys               25837696                       # Total read bytes from the system interface side
system.mem_ctrls0.bytesWrittenSys            19105600                       # Total written bytes from the system interface side
system.mem_ctrls0.servicedByWrQ                 46252                       # Number of DRAM read bursts serviced by the write queue
system.mem_ctrls0.mergedWrBursts                    0                       # Number of DRAM write bursts merged with an existing one
system.mem_ctrls0.neitherReadNorWriteReqs            0                       # Number of requests that are neither read nor write
system.mem_ctrls0.perBankRdBursts::0            17466                       # Per bank write bursts
system.mem_ctrls0.perBankRdBursts::1            19234                       # Per bank write bursts
system.mem_ctrls0.perBankRdBursts::2            19838                       # Per bank write bursts
system.mem_ctrls0.perBankRdBursts::3            21390                       # Per bank write bursts
system.mem_ctrls0.perBankRdBursts::4            22279                       # Per bank write bursts
system.mem_ctrls0.perBankRdBursts::5            23114                       # Per bank write bursts
system.mem_ctrls0.perBankRdBursts::6            23670                       # Per bank write bursts
system.mem_ctrls0.perBankRdBursts::7            23680                       # Per bank write bursts
system.mem_ctrls0.perBankRdBursts::8            23940                       # Per bank write bursts
system.mem_ctrls0.perBankRdBursts::9            23752                       # Per bank write bursts
system.mem_ctrls0.perBankRdBursts::10           23788                       # Per bank write bursts
system.mem_ctrls0.perBankRdBursts::11           23893                       # Per bank write bursts
system.mem_ctrls0.perBankRdBursts::12           23920                       # Per bank write bursts
system.mem_ctrls0.perBankRdBursts::13           23977                       # Per bank write bursts
system.mem_ctrls0.perBankRdBursts::14           23838                       # Per bank write bursts
system.mem_ctrls0.perBankRdBursts::15           19683                       # Per bank write bursts
system.mem_ctrls0.perBankWrBursts::0            11477                       # Per bank write bursts
system.mem_ctrls0.perBankWrBursts::1            14600                       # Per bank write bursts
system.mem_ctrls0.perBankWrBursts::2            15780                       # Per bank write bursts
system.mem_ctrls0.perBankWrBursts::3            17920                       # Per bank write bursts
system.mem_ctrls0.perBankWrBursts::4            18724                       # Per bank write bursts
system.mem_ctrls0.perBankWrBursts::5            19917                       # Per bank write bursts
system.mem_ctrls0.perBankWrBursts::6            20444                       # Per bank write bursts
system.mem_ctrls0.perBankWrBursts::7            20321                       # Per bank write bursts
system.mem_ctrls0.perBankWrBursts::8            20243                       # Per bank write bursts
system.mem_ctrls0.perBankWrBursts::9            20190                       # Per bank write bursts
system.mem_ctrls0.perBankWrBursts::10           20393                       # Per bank write bursts
system.mem_ctrls0.perBankWrBursts::11           20925                       # Per bank write bursts
system.mem_ctrls0.perBankWrBursts::12           20824                       # Per bank write bursts
system.mem_ctrls0.perBankWrBursts::13           20920                       # Per bank write bursts
system.mem_ctrls0.perBankWrBursts::14           20953                       # Per bank write bursts
system.mem_ctrls0.perBankWrBursts::15           14870                       # Per bank write bursts
system.mem_ctrls0.numRdRetry                        0                       # Number of times read queue was full causing retry
system.mem_ctrls0.numWrRetry                        0                       # Number of times write queue was full causing retry
system.mem_ctrls0.totGap                  39484962180                       # Total gap between requests
system.mem_ctrls0.readPktSize::0                    0                       # Read request sizes (log2)
system.mem_ctrls0.readPktSize::1                    0                       # Read request sizes (log2)
system.mem_ctrls0.readPktSize::2                    0                       # Read request sizes (log2)
system.mem_ctrls0.readPktSize::3                    0                       # Read request sizes (log2)
system.mem_ctrls0.readPktSize::4                    0                       # Read request sizes (log2)
system.mem_ctrls0.readPktSize::5                    0                       # Read request sizes (log2)
system.mem_ctrls0.readPktSize::6               403714                       # Read request sizes (log2)
system.mem_ctrls0.writePktSize::0                   0                       # Write request sizes (log2)
system.mem_ctrls0.writePktSize::1                   0                       # Write request sizes (log2)
system.mem_ctrls0.writePktSize::2                   0                       # Write request sizes (log2)
system.mem_ctrls0.writePktSize::3                   0                       # Write request sizes (log2)
system.mem_ctrls0.writePktSize::4                   0                       # Write request sizes (log2)
system.mem_ctrls0.writePktSize::5                   0                       # Write request sizes (log2)
system.mem_ctrls0.writePktSize::6              298525                       # Write request sizes (log2)
system.mem_ctrls0.rdQLenPdf::0                 202693                       # What read queue length does an incoming req see
system.mem_ctrls0.rdQLenPdf::1                 107801                       # What read queue length does an incoming req see
system.mem_ctrls0.rdQLenPdf::2                  38036                       # What read queue length does an incoming req see
system.mem_ctrls0.rdQLenPdf::3                   8609                       # What read queue length does an incoming req see
system.mem_ctrls0.rdQLenPdf::4                    236                       # What read queue length does an incoming req see
system.mem_ctrls0.rdQLenPdf::5                     68                       # What read queue length does an incoming req see
system.mem_ctrls0.rdQLenPdf::6                     15                       # What read queue length does an incoming req see
system.mem_ctrls0.rdQLenPdf::7                      3                       # What read queue length does an incoming req see
system.mem_ctrls0.rdQLenPdf::8                      1                       # What read queue length does an incoming req see
system.mem_ctrls0.rdQLenPdf::9                      0                       # What read queue length does an incoming req see
system.mem_ctrls0.rdQLenPdf::10                     0                       # What read queue length does an incoming req see
system.mem_ctrls0.rdQLenPdf::11                     0                       # What read queue length does an incoming req see
system.mem_ctrls0.rdQLenPdf::12                     0                       # What read queue length does an incoming req see
system.mem_ctrls0.rdQLenPdf::13                     0                       # What read queue length does an incoming req see
system.mem_ctrls0.rdQLenPdf::14                     0                       # What read queue length does an incoming req see
system.mem_ctrls0.rdQLenPdf::15                     0                       # What read queue length does an incoming req see
system.mem_ctrls0.rdQLenPdf::16                     0                       # What read queue length does an incoming req see
system.mem_ctrls0.rdQLenPdf::17                     0                       # What read queue length does an incoming req see
system.mem_ctrls0.rdQLenPdf::18                     0                       # What read queue length does an incoming req see
system.mem_ctrls0.rdQLenPdf::19                     0                       # What read queue length does an incoming req see
system.mem_ctrls0.rdQLenPdf::20                     0                       # What read queue length does an incoming req see
system.mem_ctrls0.rdQLenPdf::21                     0                       # What read queue length does an incoming req see
system.mem_ctrls0.rdQLenPdf::22                     0                       # What read queue length does an incoming req see
system.mem_ctrls0.rdQLenPdf::23                     0                       # What read queue length does an incoming req see
system.mem_ctrls0.rdQLenPdf::24                     0                       # What read queue length does an incoming req see
system.mem_ctrls0.rdQLenPdf::25                     0                       # What read queue length does an incoming req see
system.mem_ctrls0.rdQLenPdf::26                     0                       # What read queue length does an incoming req see
system.mem_ctrls0.rdQLenPdf::27                     0                       # What read queue length does an incoming req see
system.mem_ctrls0.rdQLenPdf::28                     0                       # What read queue length does an incoming req see
system.mem_ctrls0.rdQLenPdf::29                     0                       # What read queue length does an incoming req see
system.mem_ctrls0.rdQLenPdf::30                     0                       # What read queue length does an incoming req see
system.mem_ctrls0.rdQLenPdf::31                     0                       # What read queue length does an incoming req see
system.mem_ctrls0.wrQLenPdf::0                      1                       # What write queue length does an incoming req see
system.mem_ctrls0.wrQLenPdf::1                      1                       # What write queue length does an incoming req see
system.mem_ctrls0.wrQLenPdf::2                      1                       # What write queue length does an incoming req see
system.mem_ctrls0.wrQLenPdf::3                      1                       # What write queue length does an incoming req see
system.mem_ctrls0.wrQLenPdf::4                      1                       # What write queue length does an incoming req see
system.mem_ctrls0.wrQLenPdf::5                      1                       # What write queue length does an incoming req see
system.mem_ctrls0.wrQLenPdf::6                      1                       # What write queue length does an incoming req see
system.mem_ctrls0.wrQLenPdf::7                      1                       # What write queue length does an incoming req see
system.mem_ctrls0.wrQLenPdf::8                      1                       # What write queue length does an incoming req see
system.mem_ctrls0.wrQLenPdf::9                      1                       # What write queue length does an incoming req see
system.mem_ctrls0.wrQLenPdf::10                     1                       # What write queue length does an incoming req see
system.mem_ctrls0.wrQLenPdf::11                     1                       # What write queue length does an incoming req see
system.mem_ctrls0.wrQLenPdf::12                     1                       # What write queue length does an incoming req see
system.mem_ctrls0.wrQLenPdf::13                     1                       # What write queue length does an incoming req see
system.mem_ctrls0.wrQLenPdf::14                     1                       # What write queue length does an incoming req see
system.mem_ctrls0.wrQLenPdf::15                  5052                       # What write queue length does an incoming req see
system.mem_ctrls0.wrQLenPdf::16                  5757                       # What write queue length does an incoming req see
system.mem_ctrls0.wrQLenPdf::17                 10976                       # What write queue length does an incoming req see
system.mem_ctrls0.wrQLenPdf::18                 15474                       # What write queue length does an incoming req see
system.mem_ctrls0.wrQLenPdf::19                 17758                       # What write queue length does an incoming req see
system.mem_ctrls0.wrQLenPdf::20                 18545                       # What write queue length does an incoming req see
system.mem_ctrls0.wrQLenPdf::21                 18825                       # What write queue length does an incoming req see
system.mem_ctrls0.wrQLenPdf::22                 18861                       # What write queue length does an incoming req see
system.mem_ctrls0.wrQLenPdf::23                 18841                       # What write queue length does an incoming req see
system.mem_ctrls0.wrQLenPdf::24                 18732                       # What write queue length does an incoming req see
system.mem_ctrls0.wrQLenPdf::25                 18598                       # What write queue length does an incoming req see
system.mem_ctrls0.wrQLenPdf::26                 18661                       # What write queue length does an incoming req see
system.mem_ctrls0.wrQLenPdf::27                 18732                       # What write queue length does an incoming req see
system.mem_ctrls0.wrQLenPdf::28                 18889                       # What write queue length does an incoming req see
system.mem_ctrls0.wrQLenPdf::29                 19058                       # What write queue length does an incoming req see
system.mem_ctrls0.wrQLenPdf::30                 19070                       # What write queue length does an incoming req see
system.mem_ctrls0.wrQLenPdf::31                 18011                       # What write queue length does an incoming req see
system.mem_ctrls0.wrQLenPdf::32                 18110                       # What write queue length does an incoming req see
system.mem_ctrls0.wrQLenPdf::33                   361                       # What write queue length does an incoming req see
system.mem_ctrls0.wrQLenPdf::34                   125                       # What write queue length does an incoming req see
system.mem_ctrls0.wrQLenPdf::35                    43                       # What write queue length does an incoming req see
system.mem_ctrls0.wrQLenPdf::36                    19                       # What write queue length does an incoming req see
system.mem_ctrls0.wrQLenPdf::37                     8                       # What write queue length does an incoming req see
system.mem_ctrls0.wrQLenPdf::38                     4                       # What write queue length does an incoming req see
system.mem_ctrls0.wrQLenPdf::39                     0                       # What write queue length does an incoming req see
system.mem_ctrls0.wrQLenPdf::40                     0                       # What write queue length does an incoming req see
system.mem_ctrls0.wrQLenPdf::41                     0                       # What write queue length does an incoming req see
system.mem_ctrls0.wrQLenPdf::42                     0                       # What write queue length does an incoming req see
system.mem_ctrls0.wrQLenPdf::43                     0                       # What write queue length does an incoming req see
system.mem_ctrls0.wrQLenPdf::44                     0                       # What write queue length does an incoming req see
system.mem_ctrls0.wrQLenPdf::45                     0                       # What write queue length does an incoming req see
system.mem_ctrls0.wrQLenPdf::46                     0                       # What write queue length does an incoming req see
system.mem_ctrls0.wrQLenPdf::47                     0                       # What write queue length does an incoming req see
system.mem_ctrls0.wrQLenPdf::48                     0                       # What write queue length does an incoming req see
system.mem_ctrls0.wrQLenPdf::49                     0                       # What write queue length does an incoming req see
system.mem_ctrls0.wrQLenPdf::50                     0                       # What write queue length does an incoming req see
system.mem_ctrls0.wrQLenPdf::51                     0                       # What write queue length does an incoming req see
system.mem_ctrls0.wrQLenPdf::52                     0                       # What write queue length does an incoming req see
system.mem_ctrls0.wrQLenPdf::53                     0                       # What write queue length does an incoming req see
system.mem_ctrls0.wrQLenPdf::54                     0                       # What write queue length does an incoming req see
system.mem_ctrls0.wrQLenPdf::55                     0                       # What write queue length does an incoming req see
system.mem_ctrls0.wrQLenPdf::56                     0                       # What write queue length does an incoming req see
system.mem_ctrls0.wrQLenPdf::57                     0                       # What write queue length does an incoming req see
system.mem_ctrls0.wrQLenPdf::58                     0                       # What write queue length does an incoming req see
system.mem_ctrls0.wrQLenPdf::59                     0                       # What write queue length does an incoming req see
system.mem_ctrls0.wrQLenPdf::60                     0                       # What write queue length does an incoming req see
system.mem_ctrls0.wrQLenPdf::61                     0                       # What write queue length does an incoming req see
system.mem_ctrls0.wrQLenPdf::62                     0                       # What write queue length does an incoming req see
system.mem_ctrls0.wrQLenPdf::63                     0                       # What write queue length does an incoming req see
system.mem_ctrls0.bytesPerActivate::samples       523435                       # Bytes accessed per row activation
system.mem_ctrls0.bytesPerActivate::mean    80.202875                       # Bytes accessed per row activation
system.mem_ctrls0.bytesPerActivate::gmean    71.315726                       # Bytes accessed per row activation
system.mem_ctrls0.bytesPerActivate::stdev    79.555701                       # Bytes accessed per row activation
system.mem_ctrls0.bytesPerActivate::0-127       464685     88.78%     88.78% # Bytes accessed per row activation
system.mem_ctrls0.bytesPerActivate::128-255        47702      9.11%     97.89% # Bytes accessed per row activation
system.mem_ctrls0.bytesPerActivate::256-383         3914      0.75%     98.64% # Bytes accessed per row activation
system.mem_ctrls0.bytesPerActivate::384-511         1554      0.30%     98.93% # Bytes accessed per row activation
system.mem_ctrls0.bytesPerActivate::512-639         1884      0.36%     99.29% # Bytes accessed per row activation
system.mem_ctrls0.bytesPerActivate::640-767          798      0.15%     99.45% # Bytes accessed per row activation
system.mem_ctrls0.bytesPerActivate::768-895         1174      0.22%     99.67% # Bytes accessed per row activation
system.mem_ctrls0.bytesPerActivate::896-1023          335      0.06%     99.73% # Bytes accessed per row activation
system.mem_ctrls0.bytesPerActivate::1024-1151         1389      0.27%    100.00% # Bytes accessed per row activation
system.mem_ctrls0.bytesPerActivate::total       523435                       # Bytes accessed per row activation
system.mem_ctrls0.rdPerTurnAround::samples        17643                       # Reads before turning the bus around for writes
system.mem_ctrls0.rdPerTurnAround::mean     20.260387                       # Reads before turning the bus around for writes
system.mem_ctrls0.rdPerTurnAround::gmean    16.115292                       # Reads before turning the bus around for writes
system.mem_ctrls0.rdPerTurnAround::stdev   409.227578                       # Reads before turning the bus around for writes
system.mem_ctrls0.rdPerTurnAround::0-2047        17641     99.99%     99.99% # Reads before turning the bus around for writes
system.mem_ctrls0.rdPerTurnAround::2048-4095            1      0.01%     99.99% # Reads before turning the bus around for writes
system.mem_ctrls0.rdPerTurnAround::53248-55295            1      0.01%    100.00% # Reads before turning the bus around for writes
system.mem_ctrls0.rdPerTurnAround::total        17643                       # Reads before turning the bus around for writes
system.mem_ctrls0.wrPerTurnAround::samples        17643                       # Writes before turning the bus around for reads
system.mem_ctrls0.wrPerTurnAround::mean     16.918948                       # Writes before turning the bus around for reads
system.mem_ctrls0.wrPerTurnAround::gmean    16.865614                       # Writes before turning the bus around for reads
system.mem_ctrls0.wrPerTurnAround::stdev     1.386407                       # Writes before turning the bus around for reads
system.mem_ctrls0.wrPerTurnAround::16           11384     64.52%     64.52% # Writes before turning the bus around for reads
system.mem_ctrls0.wrPerTurnAround::17             698      3.96%     68.48% # Writes before turning the bus around for reads
system.mem_ctrls0.wrPerTurnAround::18            2619     14.84%     83.32% # Writes before turning the bus around for reads
system.mem_ctrls0.wrPerTurnAround::19            1886     10.69%     94.01% # Writes before turning the bus around for reads
system.mem_ctrls0.wrPerTurnAround::20             749      4.25%     98.26% # Writes before turning the bus around for reads
system.mem_ctrls0.wrPerTurnAround::21             233      1.32%     99.58% # Writes before turning the bus around for reads
system.mem_ctrls0.wrPerTurnAround::22              63      0.36%     99.94% # Writes before turning the bus around for reads
system.mem_ctrls0.wrPerTurnAround::23               8      0.05%     99.98% # Writes before turning the bus around for reads
system.mem_ctrls0.wrPerTurnAround::24               3      0.02%    100.00% # Writes before turning the bus around for reads
system.mem_ctrls0.wrPerTurnAround::total        17643                       # Writes before turning the bus around for reads
system.mem_ctrls0.totQLat                 13607406706                       # Total ticks spent queuing
system.mem_ctrls0.totMemAccLat            20309819206                       # Total ticks spent from burst creation until serviced by the DRAM
system.mem_ctrls0.totBusLat                1787310000                       # Total ticks spent in databus transfers
system.mem_ctrls0.avgQLat                    38066.72                       # Average queueing delay per DRAM burst
system.mem_ctrls0.avgBusLat                   5000.00                       # Average bus latency per DRAM burst
system.mem_ctrls0.avgMemAccLat               56816.72                       # Average memory access latency per DRAM burst
system.mem_ctrls0.avgRdBW                      579.40                       # Average DRAM read bandwidth in MiByte/s
system.mem_ctrls0.avgWrBW                      483.83                       # Average achieved write bandwidth in MiByte/s
system.mem_ctrls0.avgRdBWSys                   654.37                       # Average system read bandwidth in MiByte/s
system.mem_ctrls0.avgWrBWSys                   483.87                       # Average system write bandwidth in MiByte/s
system.mem_ctrls0.peakBW                     12800.00                       # Theoretical peak bandwidth in MiByte/s
system.mem_ctrls0.busUtil                        8.31                       # Data bus utilization in percentage
system.mem_ctrls0.busUtilRead                    4.53                       # Data bus utilization in percentage for reads
system.mem_ctrls0.busUtilWrite                   3.78                       # Data bus utilization in percentage for writes
system.mem_ctrls0.avgRdQLen                      1.71                       # Average read queue length when enqueuing
system.mem_ctrls0.avgWrQLen                     22.48                       # Average write queue length when enqueuing
system.mem_ctrls0.readRowHits                   70569                       # Number of row buffer hits during reads
system.mem_ctrls0.writeRowHits                  61951                       # Number of row buffer hits during writes
system.mem_ctrls0.readRowHitRate                19.74                       # Row buffer hit rate for reads
system.mem_ctrls0.writeRowHitRate               20.75                       # Row buffer hit rate for writes
system.mem_ctrls0.avgGap                     56227.24                       # Average gap between requests
system.mem_ctrls0.pageHitRate                   20.20                       # Row buffer hit rate, read and write combined
system.mem_ctrls0_0.actEnergy              1745994180                       # Energy for activate commands per rank (pJ)
system.mem_ctrls0_0.preEnergy               928006530                       # Energy for precharge commands per rank (pJ)
system.mem_ctrls0_0.readEnergy             1218590940                       # Energy for read commands per rank (pJ)
system.mem_ctrls0_0.writeEnergy             726535260                       # Energy for write commands per rank (pJ)
system.mem_ctrls0_0.refreshEnergy        2960106240.000000                       # Energy for refresh commands per rank (pJ)
system.mem_ctrls0_0.actBackEnergy          5573906880                       # Energy for active background per rank (pJ)
system.mem_ctrls0_0.preBackEnergy            87374400                       # Energy for precharge background per rank (pJ)
system.mem_ctrls0_0.actPowerDownEnergy    11024778120                       # Energy for active power-down per rank (pJ)
system.mem_ctrls0_0.prePowerDownEnergy      287728320                       # Energy for precharge power-down per rank (pJ)
system.mem_ctrls0_0.selfRefreshEnergy       515199180                       # Energy for self refresh per rank (pJ)
system.mem_ctrls0_0.totalEnergy           25068222450                       # Total energy per rank (pJ)
system.mem_ctrls0_0.averagePower           634.879616                       # Core power per rank (mW)
system.mem_ctrls0_0.totalIdleTime         27031809080                       # Total Idle time Per DRAM Rank
system.mem_ctrls0_0.memoryStateTime::IDLE     30159322                       # Time in different power states
system.mem_ctrls0_0.memoryStateTime::REF   1252262000                       # Time in different power states
system.mem_ctrls0_0.memoryStateTime::SREF   2107540723                       # Time in different power states
system.mem_ctrls0_0.memoryStateTime::PRE_PDN    748756171                       # Time in different power states
system.mem_ctrls0_0.memoryStateTime::ACT  11170770739                       # Time in different power states
system.mem_ctrls0_0.memoryStateTime::ACT_PDN  24175512186                       # Time in different power states
system.mem_ctrls0_1.actEnergy              1991388840                       # Energy for activate commands per rank (pJ)
system.mem_ctrls0_1.preEnergy              1058429295                       # Energy for precharge commands per rank (pJ)
system.mem_ctrls0_1.readEnergy             1333687740                       # Energy for read commands per rank (pJ)
system.mem_ctrls0_1.writeEnergy             831639960                       # Energy for write commands per rank (pJ)
system.mem_ctrls0_1.refreshEnergy        2960106240.000000                       # Energy for refresh commands per rank (pJ)
system.mem_ctrls0_1.actBackEnergy          5716056330                       # Energy for active background per rank (pJ)
system.mem_ctrls0_1.preBackEnergy            85897440                       # Energy for precharge background per rank (pJ)
system.mem_ctrls0_1.actPowerDownEnergy    10892424690                       # Energy for active power-down per rank (pJ)
system.mem_ctrls0_1.prePowerDownEnergy      279243840                       # Energy for precharge power-down per rank (pJ)
system.mem_ctrls0_1.selfRefreshEnergy       516909135                       # Energy for self refresh per rank (pJ)
system.mem_ctrls0_1.totalEnergy           25665978900                       # Total energy per rank (pJ)
system.mem_ctrls0_1.averagePower           650.018440                       # Core power per rank (mW)
system.mem_ctrls0_1.totalIdleTime         26724367355                       # Total Idle time Per DRAM Rank
system.mem_ctrls0_1.memoryStateTime::IDLE     29171235                       # Time in different power states
system.mem_ctrls0_1.memoryStateTime::REF   1252268000                       # Time in different power states
system.mem_ctrls0_1.memoryStateTime::SREF   2111570693                       # Time in different power states
system.mem_ctrls0_1.memoryStateTime::PRE_PDN    726918292                       # Time in different power states
system.mem_ctrls0_1.memoryStateTime::ACT  11478598020                       # Time in different power states
system.mem_ctrls0_1.memoryStateTime::ACT_PDN  23886474901                       # Time in different power states
system.mem_ctrls1.pwrStateResidencyTicks::UNDEFINED  39485001141                       # Cumulative time (in ticks) in various power states
system.mem_ctrls1.bytes_read::cpu0.inst         34688                       # Number of bytes read from this memory
system.mem_ctrls1.bytes_read::cpu0.data       6027008                       # Number of bytes read from this memory
system.mem_ctrls1.bytes_read::cpu1.inst         34176                       # Number of bytes read from this memory
system.mem_ctrls1.bytes_read::cpu1.data       6237120                       # Number of bytes read from this memory
system.mem_ctrls1.bytes_read::cpu2.inst         34112                       # Number of bytes read from this memory
system.mem_ctrls1.bytes_read::cpu2.data       6592704                       # Number of bytes read from this memory
system.mem_ctrls1.bytes_read::cpu3.inst         34176                       # Number of bytes read from this memory
system.mem_ctrls1.bytes_read::cpu3.data       6811584                       # Number of bytes read from this memory
system.mem_ctrls1.bytes_read::total          25805568                       # Number of bytes read from this memory
system.mem_ctrls1.bytes_inst_read::cpu0.inst        34688                       # Number of instructions bytes read from this memory
system.mem_ctrls1.bytes_inst_read::cpu1.inst        34176                       # Number of instructions bytes read from this memory
system.mem_ctrls1.bytes_inst_read::cpu2.inst        34112                       # Number of instructions bytes read from this memory
system.mem_ctrls1.bytes_inst_read::cpu3.inst        34176                       # Number of instructions bytes read from this memory
system.mem_ctrls1.bytes_inst_read::total       137152                       # Number of instructions bytes read from this memory
system.mem_ctrls1.bytes_written::writebacks     19061120                       # Number of bytes written to this memory
system.mem_ctrls1.bytes_written::total       19061120                       # Number of bytes written to this memory
system.mem_ctrls1.num_reads::cpu0.inst            542                       # Number of read requests responded to by this memory
system.mem_ctrls1.num_reads::cpu0.data          94172                       # Number of read requests responded to by this memory
system.mem_ctrls1.num_reads::cpu1.inst            534                       # Number of read requests responded to by this memory
system.mem_ctrls1.num_reads::cpu1.data          97455                       # Number of read requests responded to by this memory
system.mem_ctrls1.num_reads::cpu2.inst            533                       # Number of read requests responded to by this memory
system.mem_ctrls1.num_reads::cpu2.data         103011                       # Number of read requests responded to by this memory
system.mem_ctrls1.num_reads::cpu3.inst            534                       # Number of read requests responded to by this memory
system.mem_ctrls1.num_reads::cpu3.data         106431                       # Number of read requests responded to by this memory
system.mem_ctrls1.num_reads::total             403212                       # Number of read requests responded to by this memory
system.mem_ctrls1.num_writes::writebacks       297830                       # Number of write requests responded to by this memory
system.mem_ctrls1.num_writes::total            297830                       # Number of write requests responded to by this memory
system.mem_ctrls1.bw_read::cpu0.inst           878511                       # Total read bandwidth from this memory (bytes/s)
system.mem_ctrls1.bw_read::cpu0.data        152640441                       # Total read bandwidth from this memory (bytes/s)
system.mem_ctrls1.bw_read::cpu1.inst           865544                       # Total read bandwidth from this memory (bytes/s)
system.mem_ctrls1.bw_read::cpu1.data        157961753                       # Total read bandwidth from this memory (bytes/s)
system.mem_ctrls1.bw_read::cpu2.inst           863923                       # Total read bandwidth from this memory (bytes/s)
system.mem_ctrls1.bw_read::cpu2.data        166967299                       # Total read bandwidth from this memory (bytes/s)
system.mem_ctrls1.bw_read::cpu3.inst           865544                       # Total read bandwidth from this memory (bytes/s)
system.mem_ctrls1.bw_read::cpu3.data        172510670                       # Total read bandwidth from this memory (bytes/s)
system.mem_ctrls1.bw_read::total            653553685                       # Total read bandwidth from this memory (bytes/s)
system.mem_ctrls1.bw_inst_read::cpu0.inst       878511                       # Instruction read bandwidth from this memory (bytes/s)
system.mem_ctrls1.bw_inst_read::cpu1.inst       865544                       # Instruction read bandwidth from this memory (bytes/s)
system.mem_ctrls1.bw_inst_read::cpu2.inst       863923                       # Instruction read bandwidth from this memory (bytes/s)
system.mem_ctrls1.bw_inst_read::cpu3.inst       865544                       # Instruction read bandwidth from this memory (bytes/s)
system.mem_ctrls1.bw_inst_read::total         3473521                       # Instruction read bandwidth from this memory (bytes/s)
system.mem_ctrls1.bw_write::writebacks      482743306                       # Write bandwidth from this memory (bytes/s)
system.mem_ctrls1.bw_write::total           482743306                       # Write bandwidth from this memory (bytes/s)
system.mem_ctrls1.bw_total::writebacks      482743306                       # Total bandwidth to/from this memory (bytes/s)
system.mem_ctrls1.bw_total::cpu0.inst          878511                       # Total bandwidth to/from this memory (bytes/s)
system.mem_ctrls1.bw_total::cpu0.data       152640441                       # Total bandwidth to/from this memory (bytes/s)
system.mem_ctrls1.bw_total::cpu1.inst          865544                       # Total bandwidth to/from this memory (bytes/s)
system.mem_ctrls1.bw_total::cpu1.data       157961753                       # Total bandwidth to/from this memory (bytes/s)
system.mem_ctrls1.bw_total::cpu2.inst          863923                       # Total bandwidth to/from this memory (bytes/s)
system.mem_ctrls1.bw_total::cpu2.data       166967299                       # Total bandwidth to/from this memory (bytes/s)
system.mem_ctrls1.bw_total::cpu3.inst          865544                       # Total bandwidth to/from this memory (bytes/s)
system.mem_ctrls1.bw_total::cpu3.data       172510670                       # Total bandwidth to/from this memory (bytes/s)
system.mem_ctrls1.bw_total::total          1136296991                       # Total bandwidth to/from this memory (bytes/s)
system.mem_ctrls1.readReqs                     403213                       # Number of read requests accepted
system.mem_ctrls1.writeReqs                    297830                       # Number of write requests accepted
system.mem_ctrls1.readBursts                   403213                       # Number of DRAM read bursts, including those serviced by the write queue
system.mem_ctrls1.writeBursts                  297830                       # Number of DRAM write bursts, including those merged in the write queue
system.mem_ctrls1.bytesReadDRAM              22998272                       # Total number of bytes read from DRAM
system.mem_ctrls1.bytesReadWrQ                2807360                       # Total number of bytes read from write queue
system.mem_ctrls1.bytesWritten               19060032                       # Total number of bytes written to DRAM
system.mem_ctrls1.bytesReadSys               25805632                       # Total read bytes from the system interface side
system.mem_ctrls1.bytesWrittenSys            19061120                       # Total written bytes from the system interface side
system.mem_ctrls1.servicedByWrQ                 43865                       # Number of DRAM read bursts serviced by the write queue
system.mem_ctrls1.mergedWrBursts                    0                       # Number of DRAM write bursts merged with an existing one
system.mem_ctrls1.neitherReadNorWriteReqs            0                       # Number of requests that are neither read nor write
system.mem_ctrls1.perBankRdBursts::0            17282                       # Per bank write bursts
system.mem_ctrls1.perBankRdBursts::1            19233                       # Per bank write bursts
system.mem_ctrls1.perBankRdBursts::2            19996                       # Per bank write bursts
system.mem_ctrls1.perBankRdBursts::3            21260                       # Per bank write bursts
system.mem_ctrls1.perBankRdBursts::4            22076                       # Per bank write bursts
system.mem_ctrls1.perBankRdBursts::5            23067                       # Per bank write bursts
system.mem_ctrls1.perBankRdBursts::6            23857                       # Per bank write bursts
system.mem_ctrls1.perBankRdBursts::7            23874                       # Per bank write bursts
system.mem_ctrls1.perBankRdBursts::8            24083                       # Per bank write bursts
system.mem_ctrls1.perBankRdBursts::9            23921                       # Per bank write bursts
system.mem_ctrls1.perBankRdBursts::10           23966                       # Per bank write bursts
system.mem_ctrls1.perBankRdBursts::11           24177                       # Per bank write bursts
system.mem_ctrls1.perBankRdBursts::12           24348                       # Per bank write bursts
system.mem_ctrls1.perBankRdBursts::13           24396                       # Per bank write bursts
system.mem_ctrls1.perBankRdBursts::14           24257                       # Per bank write bursts
system.mem_ctrls1.perBankRdBursts::15           19555                       # Per bank write bursts
system.mem_ctrls1.perBankWrBursts::0            11466                       # Per bank write bursts
system.mem_ctrls1.perBankWrBursts::1            14758                       # Per bank write bursts
system.mem_ctrls1.perBankWrBursts::2            15867                       # Per bank write bursts
system.mem_ctrls1.perBankWrBursts::3            17951                       # Per bank write bursts
system.mem_ctrls1.perBankWrBursts::4            18695                       # Per bank write bursts
system.mem_ctrls1.perBankWrBursts::5            19741                       # Per bank write bursts
system.mem_ctrls1.perBankWrBursts::6            20215                       # Per bank write bursts
system.mem_ctrls1.perBankWrBursts::7            20291                       # Per bank write bursts
system.mem_ctrls1.perBankWrBursts::8            20413                       # Per bank write bursts
system.mem_ctrls1.perBankWrBursts::9            20285                       # Per bank write bursts
system.mem_ctrls1.perBankWrBursts::10           20130                       # Per bank write bursts
system.mem_ctrls1.perBankWrBursts::11           20550                       # Per bank write bursts
system.mem_ctrls1.perBankWrBursts::12           20926                       # Per bank write bursts
system.mem_ctrls1.perBankWrBursts::13           21234                       # Per bank write bursts
system.mem_ctrls1.perBankWrBursts::14           20843                       # Per bank write bursts
system.mem_ctrls1.perBankWrBursts::15           14448                       # Per bank write bursts
system.mem_ctrls1.numRdRetry                        0                       # Number of times read queue was full causing retry
system.mem_ctrls1.numWrRetry                        0                       # Number of times write queue was full causing retry
system.mem_ctrls1.totGap                  39484959495                       # Total gap between requests
system.mem_ctrls1.readPktSize::0                    0                       # Read request sizes (log2)
system.mem_ctrls1.readPktSize::1                    0                       # Read request sizes (log2)
system.mem_ctrls1.readPktSize::2                    0                       # Read request sizes (log2)
system.mem_ctrls1.readPktSize::3                    0                       # Read request sizes (log2)
system.mem_ctrls1.readPktSize::4                    0                       # Read request sizes (log2)
system.mem_ctrls1.readPktSize::5                    0                       # Read request sizes (log2)
system.mem_ctrls1.readPktSize::6               403213                       # Read request sizes (log2)
system.mem_ctrls1.writePktSize::0                   0                       # Write request sizes (log2)
system.mem_ctrls1.writePktSize::1                   0                       # Write request sizes (log2)
system.mem_ctrls1.writePktSize::2                   0                       # Write request sizes (log2)
system.mem_ctrls1.writePktSize::3                   0                       # Write request sizes (log2)
system.mem_ctrls1.writePktSize::4                   0                       # Write request sizes (log2)
system.mem_ctrls1.writePktSize::5                   0                       # Write request sizes (log2)
system.mem_ctrls1.writePktSize::6              297830                       # Write request sizes (log2)
system.mem_ctrls1.rdQLenPdf::0                 203284                       # What read queue length does an incoming req see
system.mem_ctrls1.rdQLenPdf::1                 108898                       # What read queue length does an incoming req see
system.mem_ctrls1.rdQLenPdf::2                  38488                       # What read queue length does an incoming req see
system.mem_ctrls1.rdQLenPdf::3                   8448                       # What read queue length does an incoming req see
system.mem_ctrls1.rdQLenPdf::4                    175                       # What read queue length does an incoming req see
system.mem_ctrls1.rdQLenPdf::5                     36                       # What read queue length does an incoming req see
system.mem_ctrls1.rdQLenPdf::6                     10                       # What read queue length does an incoming req see
system.mem_ctrls1.rdQLenPdf::7                      5                       # What read queue length does an incoming req see
system.mem_ctrls1.rdQLenPdf::8                      4                       # What read queue length does an incoming req see
system.mem_ctrls1.rdQLenPdf::9                      0                       # What read queue length does an incoming req see
system.mem_ctrls1.rdQLenPdf::10                     0                       # What read queue length does an incoming req see
system.mem_ctrls1.rdQLenPdf::11                     0                       # What read queue length does an incoming req see
system.mem_ctrls1.rdQLenPdf::12                     0                       # What read queue length does an incoming req see
system.mem_ctrls1.rdQLenPdf::13                     0                       # What read queue length does an incoming req see
system.mem_ctrls1.rdQLenPdf::14                     0                       # What read queue length does an incoming req see
system.mem_ctrls1.rdQLenPdf::15                     0                       # What read queue length does an incoming req see
system.mem_ctrls1.rdQLenPdf::16                     0                       # What read queue length does an incoming req see
system.mem_ctrls1.rdQLenPdf::17                     0                       # What read queue length does an incoming req see
system.mem_ctrls1.rdQLenPdf::18                     0                       # What read queue length does an incoming req see
system.mem_ctrls1.rdQLenPdf::19                     0                       # What read queue length does an incoming req see
system.mem_ctrls1.rdQLenPdf::20                     0                       # What read queue length does an incoming req see
system.mem_ctrls1.rdQLenPdf::21                     0                       # What read queue length does an incoming req see
system.mem_ctrls1.rdQLenPdf::22                     0                       # What read queue length does an incoming req see
system.mem_ctrls1.rdQLenPdf::23                     0                       # What read queue length does an incoming req see
system.mem_ctrls1.rdQLenPdf::24                     0                       # What read queue length does an incoming req see
system.mem_ctrls1.rdQLenPdf::25                     0                       # What read queue length does an incoming req see
system.mem_ctrls1.rdQLenPdf::26                     0                       # What read queue length does an incoming req see
system.mem_ctrls1.rdQLenPdf::27                     0                       # What read queue length does an incoming req see
system.mem_ctrls1.rdQLenPdf::28                     0                       # What read queue length does an incoming req see
system.mem_ctrls1.rdQLenPdf::29                     0                       # What read queue length does an incoming req see
system.mem_ctrls1.rdQLenPdf::30                     0                       # What read queue length does an incoming req see
system.mem_ctrls1.rdQLenPdf::31                     0                       # What read queue length does an incoming req see
system.mem_ctrls1.wrQLenPdf::0                      1                       # What write queue length does an incoming req see
system.mem_ctrls1.wrQLenPdf::1                      1                       # What write queue length does an incoming req see
system.mem_ctrls1.wrQLenPdf::2                      1                       # What write queue length does an incoming req see
system.mem_ctrls1.wrQLenPdf::3                      1                       # What write queue length does an incoming req see
system.mem_ctrls1.wrQLenPdf::4                      1                       # What write queue length does an incoming req see
system.mem_ctrls1.wrQLenPdf::5                      1                       # What write queue length does an incoming req see
system.mem_ctrls1.wrQLenPdf::6                      1                       # What write queue length does an incoming req see
system.mem_ctrls1.wrQLenPdf::7                      1                       # What write queue length does an incoming req see
system.mem_ctrls1.wrQLenPdf::8                      1                       # What write queue length does an incoming req see
system.mem_ctrls1.wrQLenPdf::9                      1                       # What write queue length does an incoming req see
system.mem_ctrls1.wrQLenPdf::10                     1                       # What write queue length does an incoming req see
system.mem_ctrls1.wrQLenPdf::11                     1                       # What write queue length does an incoming req see
system.mem_ctrls1.wrQLenPdf::12                     1                       # What write queue length does an incoming req see
system.mem_ctrls1.wrQLenPdf::13                     1                       # What write queue length does an incoming req see
system.mem_ctrls1.wrQLenPdf::14                     1                       # What write queue length does an incoming req see
system.mem_ctrls1.wrQLenPdf::15                  5010                       # What write queue length does an incoming req see
system.mem_ctrls1.wrQLenPdf::16                  5689                       # What write queue length does an incoming req see
system.mem_ctrls1.wrQLenPdf::17                 10797                       # What write queue length does an incoming req see
system.mem_ctrls1.wrQLenPdf::18                 15338                       # What write queue length does an incoming req see
system.mem_ctrls1.wrQLenPdf::19                 17558                       # What write queue length does an incoming req see
system.mem_ctrls1.wrQLenPdf::20                 18462                       # What write queue length does an incoming req see
system.mem_ctrls1.wrQLenPdf::21                 18888                       # What write queue length does an incoming req see
system.mem_ctrls1.wrQLenPdf::22                 18888                       # What write queue length does an incoming req see
system.mem_ctrls1.wrQLenPdf::23                 18868                       # What write queue length does an incoming req see
system.mem_ctrls1.wrQLenPdf::24                 18684                       # What write queue length does an incoming req see
system.mem_ctrls1.wrQLenPdf::25                 18569                       # What write queue length does an incoming req see
system.mem_ctrls1.wrQLenPdf::26                 18625                       # What write queue length does an incoming req see
system.mem_ctrls1.wrQLenPdf::27                 18750                       # What write queue length does an incoming req see
system.mem_ctrls1.wrQLenPdf::28                 18967                       # What write queue length does an incoming req see
system.mem_ctrls1.wrQLenPdf::29                 19065                       # What write queue length does an incoming req see
system.mem_ctrls1.wrQLenPdf::30                 19091                       # What write queue length does an incoming req see
system.mem_ctrls1.wrQLenPdf::31                 17970                       # What write queue length does an incoming req see
system.mem_ctrls1.wrQLenPdf::32                 18055                       # What write queue length does an incoming req see
system.mem_ctrls1.wrQLenPdf::33                   341                       # What write queue length does an incoming req see
system.mem_ctrls1.wrQLenPdf::34                   126                       # What write queue length does an incoming req see
system.mem_ctrls1.wrQLenPdf::35                    50                       # What write queue length does an incoming req see
system.mem_ctrls1.wrQLenPdf::36                    19                       # What write queue length does an incoming req see
system.mem_ctrls1.wrQLenPdf::37                     4                       # What write queue length does an incoming req see
system.mem_ctrls1.wrQLenPdf::38                     1                       # What write queue length does an incoming req see
system.mem_ctrls1.wrQLenPdf::39                     0                       # What write queue length does an incoming req see
system.mem_ctrls1.wrQLenPdf::40                     0                       # What write queue length does an incoming req see
system.mem_ctrls1.wrQLenPdf::41                     0                       # What write queue length does an incoming req see
system.mem_ctrls1.wrQLenPdf::42                     0                       # What write queue length does an incoming req see
system.mem_ctrls1.wrQLenPdf::43                     0                       # What write queue length does an incoming req see
system.mem_ctrls1.wrQLenPdf::44                     0                       # What write queue length does an incoming req see
system.mem_ctrls1.wrQLenPdf::45                     0                       # What write queue length does an incoming req see
system.mem_ctrls1.wrQLenPdf::46                     0                       # What write queue length does an incoming req see
system.mem_ctrls1.wrQLenPdf::47                     0                       # What write queue length does an incoming req see
system.mem_ctrls1.wrQLenPdf::48                     0                       # What write queue length does an incoming req see
system.mem_ctrls1.wrQLenPdf::49                     0                       # What write queue length does an incoming req see
system.mem_ctrls1.wrQLenPdf::50                     0                       # What write queue length does an incoming req see
system.mem_ctrls1.wrQLenPdf::51                     0                       # What write queue length does an incoming req see
system.mem_ctrls1.wrQLenPdf::52                     0                       # What write queue length does an incoming req see
system.mem_ctrls1.wrQLenPdf::53                     0                       # What write queue length does an incoming req see
system.mem_ctrls1.wrQLenPdf::54                     0                       # What write queue length does an incoming req see
system.mem_ctrls1.wrQLenPdf::55                     0                       # What write queue length does an incoming req see
system.mem_ctrls1.wrQLenPdf::56                     0                       # What write queue length does an incoming req see
system.mem_ctrls1.wrQLenPdf::57                     0                       # What write queue length does an incoming req see
system.mem_ctrls1.wrQLenPdf::58                     0                       # What write queue length does an incoming req see
system.mem_ctrls1.wrQLenPdf::59                     0                       # What write queue length does an incoming req see
system.mem_ctrls1.wrQLenPdf::60                     0                       # What write queue length does an incoming req see
system.mem_ctrls1.wrQLenPdf::61                     0                       # What write queue length does an incoming req see
system.mem_ctrls1.wrQLenPdf::62                     0                       # What write queue length does an incoming req see
system.mem_ctrls1.wrQLenPdf::63                     0                       # What write queue length does an incoming req see
system.mem_ctrls1.bytesPerActivate::samples       524504                       # Bytes accessed per row activation
system.mem_ctrls1.bytesPerActivate::mean    80.185837                       # Bytes accessed per row activation
system.mem_ctrls1.bytesPerActivate::gmean    71.291362                       # Bytes accessed per row activation
system.mem_ctrls1.bytesPerActivate::stdev    79.652593                       # Bytes accessed per row activation
system.mem_ctrls1.bytesPerActivate::0-127       465890     88.82%     88.82% # Bytes accessed per row activation
system.mem_ctrls1.bytesPerActivate::128-255        47539      9.06%     97.89% # Bytes accessed per row activation
system.mem_ctrls1.bytesPerActivate::256-383         3919      0.75%     98.64% # Bytes accessed per row activation
system.mem_ctrls1.bytesPerActivate::384-511         1554      0.30%     98.93% # Bytes accessed per row activation
system.mem_ctrls1.bytesPerActivate::512-639         1856      0.35%     99.29% # Bytes accessed per row activation
system.mem_ctrls1.bytesPerActivate::640-767          801      0.15%     99.44% # Bytes accessed per row activation
system.mem_ctrls1.bytesPerActivate::768-895         1255      0.24%     99.68% # Bytes accessed per row activation
system.mem_ctrls1.bytesPerActivate::896-1023          311      0.06%     99.74% # Bytes accessed per row activation
system.mem_ctrls1.bytesPerActivate::1024-1151         1379      0.26%    100.00% # Bytes accessed per row activation
system.mem_ctrls1.bytesPerActivate::total       524504                       # Bytes accessed per row activation
system.mem_ctrls1.rdPerTurnAround::samples        17605                       # Reads before turning the bus around for writes
system.mem_ctrls1.rdPerTurnAround::mean     20.411474                       # Reads before turning the bus around for writes
system.mem_ctrls1.rdPerTurnAround::gmean    16.288762                       # Reads before turning the bus around for writes
system.mem_ctrls1.rdPerTurnAround::stdev   409.570962                       # Reads before turning the bus around for writes
system.mem_ctrls1.rdPerTurnAround::0-2047        17602     99.98%     99.98% # Reads before turning the bus around for writes
system.mem_ctrls1.rdPerTurnAround::2048-4095            2      0.01%     99.99% # Reads before turning the bus around for writes
system.mem_ctrls1.rdPerTurnAround::53248-55295            1      0.01%    100.00% # Reads before turning the bus around for writes
system.mem_ctrls1.rdPerTurnAround::total        17605                       # Reads before turning the bus around for writes
system.mem_ctrls1.wrPerTurnAround::samples        17605                       # Writes before turning the bus around for reads
system.mem_ctrls1.wrPerTurnAround::mean     16.916387                       # Writes before turning the bus around for reads
system.mem_ctrls1.wrPerTurnAround::gmean    16.863078                       # Writes before turning the bus around for reads
system.mem_ctrls1.wrPerTurnAround::stdev     1.387428                       # Writes before turning the bus around for reads
system.mem_ctrls1.wrPerTurnAround::16           11343     64.43%     64.43% # Writes before turning the bus around for reads
system.mem_ctrls1.wrPerTurnAround::17             719      4.08%     68.51% # Writes before turning the bus around for reads
system.mem_ctrls1.wrPerTurnAround::18            2692     15.29%     83.81% # Writes before turning the bus around for reads
system.mem_ctrls1.wrPerTurnAround::19            1811     10.29%     94.09% # Writes before turning the bus around for reads
system.mem_ctrls1.wrPerTurnAround::20             722      4.10%     98.19% # Writes before turning the bus around for reads
system.mem_ctrls1.wrPerTurnAround::21             226      1.28%     99.48% # Writes before turning the bus around for reads
system.mem_ctrls1.wrPerTurnAround::22              73      0.41%     99.89% # Writes before turning the bus around for reads
system.mem_ctrls1.wrPerTurnAround::23              13      0.07%     99.97% # Writes before turning the bus around for reads
system.mem_ctrls1.wrPerTurnAround::24               4      0.02%     99.99% # Writes before turning the bus around for reads
system.mem_ctrls1.wrPerTurnAround::25               2      0.01%    100.00% # Writes before turning the bus around for reads
system.mem_ctrls1.wrPerTurnAround::total        17605                       # Writes before turning the bus around for reads
system.mem_ctrls1.totQLat                 13591496206                       # Total ticks spent queuing
system.mem_ctrls1.totMemAccLat            20329271206                       # Total ticks spent from burst creation until serviced by the DRAM
system.mem_ctrls1.totBusLat                1796740000                       # Total ticks spent in databus transfers
system.mem_ctrls1.avgQLat                    37822.66                       # Average queueing delay per DRAM burst
system.mem_ctrls1.avgBusLat                   5000.00                       # Average bus latency per DRAM burst
system.mem_ctrls1.avgMemAccLat               56572.66                       # Average memory access latency per DRAM burst
system.mem_ctrls1.avgRdBW                      582.46                       # Average DRAM read bandwidth in MiByte/s
system.mem_ctrls1.avgWrBW                      482.72                       # Average achieved write bandwidth in MiByte/s
system.mem_ctrls1.avgRdBWSys                   653.56                       # Average system read bandwidth in MiByte/s
system.mem_ctrls1.avgWrBWSys                   482.74                       # Average system write bandwidth in MiByte/s
system.mem_ctrls1.peakBW                     12800.00                       # Theoretical peak bandwidth in MiByte/s
system.mem_ctrls1.busUtil                        8.32                       # Data bus utilization in percentage
system.mem_ctrls1.busUtilRead                    4.55                       # Data bus utilization in percentage for reads
system.mem_ctrls1.busUtilWrite                   3.77                       # Data bus utilization in percentage for writes
system.mem_ctrls1.avgRdQLen                      1.71                       # Average read queue length when enqueuing
system.mem_ctrls1.avgWrQLen                     22.46                       # Average write queue length when enqueuing
system.mem_ctrls1.readRowHits                   70585                       # Number of row buffer hits during reads
system.mem_ctrls1.writeRowHits                  62064                       # Number of row buffer hits during writes
system.mem_ctrls1.readRowHitRate                19.64                       # Row buffer hit rate for reads
system.mem_ctrls1.writeRowHitRate               20.84                       # Row buffer hit rate for writes
system.mem_ctrls1.avgGap                     56323.16                       # Average gap between requests
system.mem_ctrls1.pageHitRate                   20.18                       # Row buffer hit rate, read and write combined
system.mem_ctrls1_0.actEnergy              1745929920                       # Energy for activate commands per rank (pJ)
system.mem_ctrls1_0.preEnergy               927976170                       # Energy for precharge commands per rank (pJ)
system.mem_ctrls1_0.readEnergy             1218398160                       # Energy for read commands per rank (pJ)
system.mem_ctrls1_0.writeEnergy             725496480                       # Energy for write commands per rank (pJ)
system.mem_ctrls1_0.refreshEnergy        2957647680.000000                       # Energy for refresh commands per rank (pJ)
system.mem_ctrls1_0.actBackEnergy          5583412770                       # Energy for active background per rank (pJ)
system.mem_ctrls1_0.preBackEnergy            87563520                       # Energy for precharge background per rank (pJ)
system.mem_ctrls1_0.actPowerDownEnergy    11016279420                       # Energy for active power-down per rank (pJ)
system.mem_ctrls1_0.prePowerDownEnergy      280529760                       # Energy for precharge power-down per rank (pJ)
system.mem_ctrls1_0.selfRefreshEnergy       517974705                       # Energy for self refresh per rank (pJ)
system.mem_ctrls1_0.totalEnergy           25061314185                       # Total energy per rank (pJ)
system.mem_ctrls1_0.averagePower           634.704657                       # Core power per rank (mW)
system.mem_ctrls1_0.totalIdleTime         27013485382                       # Total Idle time Per DRAM Rank
system.mem_ctrls1_0.memoryStateTime::IDLE     29239757                       # Time in different power states
system.mem_ctrls1_0.memoryStateTime::REF   1251216000                       # Time in different power states
system.mem_ctrls1_0.memoryStateTime::SREF   2123358400                       # Time in different power states
system.mem_ctrls1_0.memoryStateTime::PRE_PDN    730450145                       # Time in different power states
system.mem_ctrls1_0.memoryStateTime::ACT  11191060002                       # Time in different power states
system.mem_ctrls1_0.memoryStateTime::ACT_PDN  24159676837                       # Time in different power states
system.mem_ctrls1_1.actEnergy              1999085760                       # Energy for activate commands per rank (pJ)
system.mem_ctrls1_1.preEnergy              1062516510                       # Energy for precharge commands per rank (pJ)
system.mem_ctrls1_1.readEnergy             1347339420                       # Energy for read commands per rank (pJ)
system.mem_ctrls1_1.writeEnergy             829087380                       # Energy for write commands per rank (pJ)
system.mem_ctrls1_1.refreshEnergy        2963179440.000000                       # Energy for refresh commands per rank (pJ)
system.mem_ctrls1_1.actBackEnergy          5766269910                       # Energy for active background per rank (pJ)
system.mem_ctrls1_1.preBackEnergy            86583840                       # Energy for precharge background per rank (pJ)
system.mem_ctrls1_1.actPowerDownEnergy    10837767390                       # Energy for active power-down per rank (pJ)
system.mem_ctrls1_1.prePowerDownEnergy      298254240                       # Energy for precharge power-down per rank (pJ)
system.mem_ctrls1_1.selfRefreshEnergy       506849820                       # Energy for self refresh per rank (pJ)
system.mem_ctrls1_1.totalEnergy           25696933710                       # Total energy per rank (pJ)
system.mem_ctrls1_1.averagePower           650.802403                       # Core power per rank (mW)
system.mem_ctrls1_1.totalIdleTime         26614985637                       # Total Idle time Per DRAM Rank
system.mem_ctrls1_1.memoryStateTime::IDLE     28775834                       # Time in different power states
system.mem_ctrls1_1.memoryStateTime::REF   1253568000                       # Time in different power states
system.mem_ctrls1_1.memoryStateTime::SREF   2070456750                       # Time in different power states
system.mem_ctrls1_1.memoryStateTime::PRE_PDN    776551660                       # Time in different power states
system.mem_ctrls1_1.memoryStateTime::ACT  11587349628                       # Time in different power states
system.mem_ctrls1_1.memoryStateTime::ACT_PDN  23768299269                       # Time in different power states
system.pwrStateResidencyTicks::UNDEFINED  39485001141                       # Cumulative time (in ticks) in various power states
system.cpu0.branchPred.lookups                6697877                       # Number of BP lookups
system.cpu0.branchPred.condPredicted          6697877                       # Number of conditional branches predicted
system.cpu0.branchPred.condIncorrect             2727                       # Number of conditional branches incorrect
system.cpu0.branchPred.BTBLookups             6038760                       # Number of BTB lookups
system.cpu0.branchPred.BTBHits                      0                       # Number of BTB hits
system.cpu0.branchPred.BTBCorrect                   0                       # Number of correct BTB predictions (this stat may not work properly.
system.cpu0.branchPred.BTBHitPct             0.000000                       # BTB Hit Percentage
system.cpu0.branchPred.usedRAS                 610655                       # Number of times the RAS was used to get a target.
system.cpu0.branchPred.RASInCorrect               597                       # Number of incorrect RAS predictions.
system.cpu0.branchPred.indirectLookups        6038760                       # Number of indirect predictor lookups.
system.cpu0.branchPred.indirectHits           4371403                       # Number of indirect target hits.
system.cpu0.branchPred.indirectMisses         1667357                       # Number of indirect misses.
system.cpu0.branchPredindirectMispredicted         1811                       # Number of mispredicted indirect branches.
system.cpu_voltage_domain.voltage                   1                       # Voltage in Volts
system.cpu_clk_domain.clock                       333                       # Clock period in ticks
system.cpu0.dtb.walker.pwrStateResidencyTicks::UNDEFINED  39485001141                       # Cumulative time (in ticks) in various power states
system.cpu0.apic_clk_domain.clock                5328                       # Clock period in ticks
system.cpu0.interrupts.pwrStateResidencyTicks::UNDEFINED  39485001141                       # Cumulative time (in ticks) in various power states
system.cpu0.itb.walker.pwrStateResidencyTicks::UNDEFINED  39485001141                       # Cumulative time (in ticks) in various power states
system.cpu0.workload.num_syscalls                  16                       # Number of system calls
system.cpu0.pwrStateResidencyTicks::ON    39485001141                       # Cumulative time (in ticks) in various power states
system.cpu0.numCycles                       118573578                       # number of cpu cycles simulated
system.cpu0.numWorkItemsStarted                     0                       # number of work items this cpu started
system.cpu0.numWorkItemsCompleted                   0                       # number of work items this cpu completed
system.cpu0.fetch.icacheStallCycles          34163773                       # Number of cycles fetch is stalled on an Icache miss
system.cpu0.fetch.Insts                     100061375                       # Number of instructions fetch has processed
system.cpu0.fetch.Branches                    6697877                       # Number of branches that fetch encountered
system.cpu0.fetch.predictedBranches           4982058                       # Number of branches that fetch has predicted taken
system.cpu0.fetch.Cycles                     84230590                       # Number of cycles fetch has run and was not squashing or blocked
system.cpu0.fetch.SquashCycles                   7372                       # Number of cycles fetch has spent squashing
system.cpu0.fetch.MiscStallCycles                 187                       # Number of cycles fetch has spent waiting on interrupts, or bad addresses, or out of MSHRs
system.cpu0.fetch.PendingTrapStallCycles         1380                       # Number of stall cycles due to pending traps
system.cpu0.fetch.PendingQuiesceStallCycles            7                       # Number of stall cycles due to pending quiesce instructions
system.cpu0.fetch.CacheLines                 11368052                       # Number of cache lines fetched
system.cpu0.fetch.IcacheSquashes                 2065                       # Number of outstanding Icache misses that were squashed
system.cpu0.fetch.rateDist::samples         118399623                       # Number of instructions fetched each cycle (Total)
system.cpu0.fetch.rateDist::mean             1.249766                       # Number of instructions fetched each cycle (Total)
[...]
system.l3.demand_mshr_miss_latency::total  75416040664                       # number of demand (read+write) MSHR miss cycles
system.l3.overall_mshr_miss_latency::cpu0.inst     93671253                       # number of overall MSHR miss cycles
system.l3.overall_mshr_miss_latency::cpu0.data  17845338880                       # number of overall MSHR miss cycles
system.l3.overall_mshr_miss_latency::cpu1.inst     94329708                       # number of overall MSHR miss cycles
system.l3.overall_mshr_miss_latency::cpu1.data  18447244934                       # number of overall MSHR miss cycles
system.l3.overall_mshr_miss_latency::cpu2.inst     92226597                       # number of overall MSHR miss cycles
system.l3.overall_mshr_miss_latency::cpu2.data  18688257784                       # number of overall MSHR miss cycles
system.l3.overall_mshr_miss_latency::cpu3.inst     95963240                       # number of overall MSHR miss cycles
system.l3.overall_mshr_miss_latency::cpu3.data  20059008268                       # number of overall MSHR miss cycles
system.l3.overall_mshr_miss_latency::total  75416040664                       # number of overall MSHR miss cycles
system.l3.CleanEvict_mshr_miss_rate::writebacks          inf                       # mshr miss rate for CleanEvict accesses
system.l3.CleanEvict_mshr_miss_rate::total          inf                       # mshr miss rate for CleanEvict accesses
system.l3.ReadExReq_mshr_miss_rate::cpu0.data            1                       # mshr miss rate for ReadExReq accesses
system.l3.ReadExReq_mshr_miss_rate::cpu1.data     0.999980                       # mshr miss rate for ReadExReq accesses
system.l3.ReadExReq_mshr_miss_rate::cpu2.data            1                       # mshr miss rate for ReadExReq accesses
system.l3.ReadExReq_mshr_miss_rate::cpu3.data            1                       # mshr miss rate for ReadExReq accesses
system.l3.ReadExReq_mshr_miss_rate::total     0.999995                       # mshr miss rate for ReadExReq accesses
system.l3.ReadSharedReq_mshr_miss_rate::cpu0.inst            1                       # mshr miss rate for ReadSharedReq accesses
system.l3.ReadSharedReq_mshr_miss_rate::cpu0.data     0.357369                       # mshr miss rate for ReadSharedReq accesses
system.l3.ReadSharedReq_mshr_miss_rate::cpu1.inst            1                       # mshr miss rate for ReadSharedReq accesses
system.l3.ReadSharedReq_mshr_miss_rate::cpu1.data     0.381224                       # mshr miss rate for ReadSharedReq accesses
system.l3.ReadSharedReq_mshr_miss_rate::cpu2.inst            1                       # mshr miss rate for ReadSharedReq accesses
system.l3.ReadSharedReq_mshr_miss_rate::cpu2.data     0.408019                       # mshr miss rate for ReadSharedReq accesses
system.l3.ReadSharedReq_mshr_miss_rate::cpu3.inst            1                       # mshr miss rate for ReadSharedReq accesses
system.l3.ReadSharedReq_mshr_miss_rate::cpu3.data     0.430430                       # mshr miss rate for ReadSharedReq accesses
system.l3.ReadSharedReq_mshr_miss_rate::total     0.395697                       # mshr miss rate for ReadSharedReq accesses
system.l3.demand_mshr_miss_rate::cpu0.inst            1                       # mshr miss rate for demand accesses
system.l3.demand_mshr_miss_rate::cpu0.data     0.429557                       # mshr miss rate for demand accesses
system.l3.demand_mshr_miss_rate::cpu1.inst            1                       # mshr miss rate for demand accesses
system.l3.demand_mshr_miss_rate::cpu1.data     0.452026                       # mshr miss rate for demand accesses
system.l3.demand_mshr_miss_rate::cpu2.inst            1                       # mshr miss rate for demand accesses
system.l3.demand_mshr_miss_rate::cpu2.data     0.475514                       # mshr miss rate for demand accesses
system.l3.demand_mshr_miss_rate::cpu3.inst            1                       # mshr miss rate for demand accesses
system.l3.demand_mshr_miss_rate::cpu3.data     0.496111                       # mshr miss rate for demand accesses
system.l3.demand_mshr_miss_rate::total       0.464423                       # mshr miss rate for demand accesses
system.l3.overall_mshr_miss_rate::cpu0.inst            1                       # mshr miss rate for overall accesses
system.l3.overall_mshr_miss_rate::cpu0.data     0.429557                       # mshr miss rate for overall accesses
system.l3.overall_mshr_miss_rate::cpu1.inst            1                       # mshr miss rate for overall accesses
system.l3.overall_mshr_miss_rate::cpu1.data     0.452026                       # mshr miss rate for overall accesses
system.l3.overall_mshr_miss_rate::cpu2.inst            1                       # mshr miss rate for overall accesses
system.l3.overall_mshr_miss_rate::cpu2.data     0.475514                       # mshr miss rate for overall accesses
system.l3.overall_mshr_miss_rate::cpu3.inst            1                       # mshr miss rate for overall accesses
system.l3.overall_mshr_miss_rate::cpu3.data     0.496111                       # mshr miss rate for overall accesses
system.l3.overall_mshr_miss_rate::total      0.464423                       # mshr miss rate for overall accesses
system.l3.ReadExReq_avg_mshr_miss_latency::cpu0.data 92155.901298                       # average ReadExReq mshr miss latency
system.l3.ReadExReq_avg_mshr_miss_latency::cpu1.data 87498.438196                       # average ReadExReq mshr miss latency
system.l3.ReadExReq_avg_mshr_miss_latency::cpu2.data 88843.256138                       # average ReadExReq mshr miss latency
system.l3.ReadExReq_avg_mshr_miss_latency::cpu3.data 92193.630020                       # average ReadExReq mshr miss latency
system.l3.ReadExReq_avg_mshr_miss_latency::total 90172.823332                       # average ReadExReq mshr miss latency
system.l3.ReadSharedReq_avg_mshr_miss_latency::cpu0.inst 86893.555659                       # average ReadSharedReq mshr miss latency
system.l3.ReadSharedReq_avg_mshr_miss_latency::cpu0.data 95283.031797                       # average ReadSharedReq mshr miss latency
system.l3.ReadSharedReq_avg_mshr_miss_latency::cpu1.inst 87423.269694                       # average ReadSharedReq mshr miss latency
system.l3.ReadSharedReq_avg_mshr_miss_latency::cpu1.data 96915.161198                       # average ReadSharedReq mshr miss latency
system.l3.ReadSharedReq_avg_mshr_miss_latency::cpu2.inst 85952.094129                       # average ReadSharedReq mshr miss latency
system.l3.ReadSharedReq_avg_mshr_miss_latency::cpu2.data 91287.191574                       # average ReadSharedReq mshr miss latency
system.l3.ReadSharedReq_avg_mshr_miss_latency::cpu3.inst 89268.130233                       # average ReadSharedReq mshr miss latency
system.l3.ReadSharedReq_avg_mshr_miss_latency::cpu3.data 95046.454266                       # average ReadSharedReq mshr miss latency
system.l3.ReadSharedReq_avg_mshr_miss_latency::total 94527.075744                       # average ReadSharedReq mshr miss latency
system.l3.demand_avg_mshr_miss_latency::cpu0.inst 86893.555659                       # average overall mshr miss latency
system.l3.demand_avg_mshr_miss_latency::cpu0.data 94465.265710                       # average overall mshr miss latency
system.l3.demand_avg_mshr_miss_latency::cpu1.inst 87423.269694                       # average overall mshr miss latency
system.l3.demand_avg_mshr_miss_latency::cpu1.data 94531.448233                       # average overall mshr miss latency
system.l3.demand_avg_mshr_miss_latency::cpu2.inst 85952.094129                       # average overall mshr miss latency
system.l3.demand_avg_mshr_miss_latency::cpu2.data 90701.205502                       # average overall mshr miss latency
system.l3.demand_avg_mshr_miss_latency::cpu3.inst 89268.130233                       # average overall mshr miss latency
system.l3.demand_avg_mshr_miss_latency::cpu3.data 94383.340790                       # average overall mshr miss latency
system.l3.demand_avg_mshr_miss_latency::total 93460.797153                       # average overall mshr miss latency
system.l3.overall_avg_mshr_miss_latency::cpu0.inst 86893.555659                       # average overall mshr miss latency
system.l3.overall_avg_mshr_miss_latency::cpu0.data 94465.265710                       # average overall mshr miss latency
system.l3.overall_avg_mshr_miss_latency::cpu1.inst 87423.269694                       # average overall mshr miss latency
system.l3.overall_avg_mshr_miss_latency::cpu1.data 94531.448233                       # average overall mshr miss latency
system.l3.overall_avg_mshr_miss_latency::cpu2.inst 85952.094129                       # average overall mshr miss latency
system.l3.overall_avg_mshr_miss_latency::cpu2.data 90701.205502                       # average overall mshr miss latency
system.l3.overall_avg_mshr_miss_latency::cpu3.inst 89268.130233                       # average overall mshr miss latency
system.l3.overall_avg_mshr_miss_latency::cpu3.data 94383.340790                       # average overall mshr miss latency
system.l3.overall_avg_mshr_miss_latency::total 93460.797153                       # average overall mshr miss latency
system.membus.snoop_filter.tot_requests       1480151                       # Total number of requests made to the snoop filter.
system.membus.snoop_filter.hit_single_requests       673228                       # Number of requests hitting in the snoop filter with a single holder of the requested data.
system.membus.snoop_filter.hit_multi_requests            0                       # Number of requests hitting in the snoop filter with multiple (>1) holders of the requested data.
system.membus.snoop_filter.tot_snoops               0                       # Total number of snoops made to the snoop filter.
system.membus.snoop_filter.hit_single_snoops            0                       # Number of snoops hitting in the snoop filter with a single holder of the requested data.
system.membus.snoop_filter.hit_multi_snoops            0                       # Number of snoops hitting in the snoop filter with multiple (>1) holders of the requested data.
system.membus.pwrStateResidencyTicks::UNDEFINED  39485001141                       # Cumulative time (in ticks) in various power states
system.membus.trans_dist::ReadResp             609323                       # Transaction distribution
system.membus.trans_dist::WritebackDirty       596355                       # Transaction distribution
system.membus.trans_dist::CleanEvict            76869                       # Transaction distribution
system.membus.trans_dist::ReadExReq            197602                       # Transaction distribution
system.membus.trans_dist::ReadExResp           197602                       # Transaction distribution
system.membus.trans_dist::ReadSharedReq        609325                       # Transaction distribution
system.membus.pkt_count_system.l3.mem_side::system.mem_ctrls0.port      1144247                       # Packet count per connected master and slave (bytes)
system.membus.pkt_count_system.l3.mem_side::system.mem_ctrls1.port      1142829                       # Packet count per connected master and slave (bytes)
system.membus.pkt_count_system.l3.mem_side::total      2287076                       # Packet count per connected master and slave (bytes)
system.membus.pkt_count::total                2287076                       # Packet count per connected master and slave (bytes)
system.membus.pkt_size_system.l3.mem_side::system.mem_ctrls0.port     44943232                       # Cumulative packet size per connected master and slave (bytes)
system.membus.pkt_size_system.l3.mem_side::system.mem_ctrls1.port     44866688                       # Cumulative packet size per connected master and slave (bytes)
system.membus.pkt_size_system.l3.mem_side::total     89809920                       # Cumulative packet size per connected master and slave (bytes)
system.membus.pkt_size::total                89809920                       # Cumulative packet size per connected master and slave (bytes)
system.membus.snoops                                0                       # Total snoops (count)
system.membus.snoopTraffic                          0                       # Total snoop traffic (bytes)
system.membus.snoop_fanout::samples            806927                       # Request fanout histogram
system.membus.snoop_fanout::mean                    0                       # Request fanout histogram
system.membus.snoop_fanout::stdev                   0                       # Request fanout histogram
system.membus.snoop_fanout::underflows              0      0.00%      0.00% # Request fanout histogram
system.membus.snoop_fanout::0                  806927    100.00%    100.00% # Request fanout histogram
system.membus.snoop_fanout::1                       0      0.00%    100.00% # Request fanout histogram
system.membus.snoop_fanout::overflows               0      0.00%    100.00% # Request fanout histogram
system.membus.snoop_fanout::min_value               0                       # Request fanout histogram
system.membus.snoop_fanout::max_value               0                       # Request fanout histogram
system.membus.snoop_fanout::total              806927                       # Request fanout histogram
system.membus.reqLayer8.occupancy          2378675882                       # Layer occupancy (ticks)
system.membus.reqLayer8.utilization               6.0                       # Layer utilization (%)
system.membus.reqLayer9.occupancy          2374240352                       # Layer occupancy (ticks)
system.membus.reqLayer9.utilization               6.0                       # Layer utilization (%)
system.membus.respLayer1.occupancy         4349527154                       # Layer occupancy (ticks)
system.membus.respLayer1.utilization             11.0                       # Layer utilization (%)
system.tol3bus.snoop_filter.tot_requests      3456559                       # Total number of requests made to the snoop filter.
system.tol3bus.snoop_filter.hit_single_requests      1719082                       # Number of requests hitting in the snoop filter with a single holder of the requested data.
system.tol3bus.snoop_filter.hit_multi_requests            0                       # Number of requests hitting in the snoop filter with multiple (>1) holders of the requested data.
system.tol3bus.snoop_filter.tot_snoops          51442                       # Total number of snoops made to the snoop filter.
system.tol3bus.snoop_filter.hit_single_snoops        51442                       # Number of snoops hitting in the snoop filter with a single holder of the requested data.
system.tol3bus.snoop_filter.hit_multi_snoops            0                       # Number of snoops hitting in the snoop filter with multiple (>1) holders of the requested data.
system.tol3bus.pwrStateResidencyTicks::UNDEFINED  39485001141                       # Cumulative time (in ticks) in various power states
system.tol3bus.trans_dist::ReadResp           1539875                       # Transaction distribution
system.tol3bus.trans_dist::WritebackDirty      2233052                       # Transaction distribution
system.tol3bus.trans_dist::CleanEvict          204548                       # Transaction distribution
system.tol3bus.trans_dist::ReadExReq           197603                       # Transaction distribution
system.tol3bus.trans_dist::ReadExResp          197603                       # Transaction distribution
system.tol3bus.trans_dist::ReadSharedReq      1539878                       # Transaction distribution
system.tol3bus.pkt_count_system.cpu0.l2.mem_side::system.l3.cpu_side      1317964                       # Packet count per connected master and slave (bytes)
system.tol3bus.pkt_count_system.cpu1.l2.mem_side::system.l3.cpu_side      1293766                       # Packet count per connected master and slave (bytes)
system.tol3bus.pkt_count_system.cpu2.l2.mem_side::system.l3.cpu_side      1298527                       # Packet count per connected master and slave (bytes)
system.tol3bus.pkt_count_system.cpu3.l2.mem_side::system.l3.cpu_side      1283780                       # Packet count per connected master and slave (bytes)
system.tol3bus.pkt_count::total               5194037                       # Packet count per connected master and slave (bytes)
system.tol3bus.pkt_size_system.cpu0.l2.mem_side::system.l3.cpu_side     54787968                       # Cumulative packet size per connected master and slave (bytes)
system.tol3bus.pkt_size_system.cpu1.l2.mem_side::system.l3.cpu_side     53795840                       # Cumulative packet size per connected master and slave (bytes)
system.tol3bus.pkt_size_system.cpu2.l2.mem_side::system.l3.cpu_side     53989952                       # Cumulative packet size per connected master and slave (bytes)
system.tol3bus.pkt_size_system.cpu3.l2.mem_side::system.l3.cpu_side     53373376                       # Cumulative packet size per connected master and slave (bytes)
system.tol3bus.pkt_size::total              215947136                       # Cumulative packet size per connected master and slave (bytes)
system.tol3bus.snoops                          718522                       # Total snoops (count)
system.tol3bus.snoopTraffic                  38166784                       # Total snoop traffic (bytes)
system.tol3bus.snoop_fanout::samples          2456003                       # Request fanout histogram
system.tol3bus.snoop_fanout::mean            0.020945                       # Request fanout histogram
system.tol3bus.snoop_fanout::stdev           0.143202                       # Request fanout histogram
system.tol3bus.snoop_fanout::underflows             0      0.00%      0.00% # Request fanout histogram
system.tol3bus.snoop_fanout::0                2404561     97.91%     97.91% # Request fanout histogram
system.tol3bus.snoop_fanout::1                  51442      2.09%    100.00% # Request fanout histogram
system.tol3bus.snoop_fanout::2                      0      0.00%    100.00% # Request fanout histogram
system.tol3bus.snoop_fanout::3                      0      0.00%    100.00% # Request fanout histogram
system.tol3bus.snoop_fanout::4                      0      0.00%    100.00% # Request fanout histogram
system.tol3bus.snoop_fanout::overflows              0      0.00%    100.00% # Request fanout histogram
system.tol3bus.snoop_fanout::min_value              0                       # Request fanout histogram
system.tol3bus.snoop_fanout::max_value              1                       # Request fanout histogram
system.tol3bus.snoop_fanout::total            2456003                       # Request fanout histogram
system.tol3bus.reqLayer0.occupancy         1696053915                       # Layer occupancy (ticks)
system.tol3bus.reqLayer0.utilization              4.3                       # Layer utilization (%)
system.tol3bus.respLayer0.occupancy         293975289                       # Layer occupancy (ticks)
system.tol3bus.respLayer0.utilization             0.7                       # Layer utilization (%)
system.tol3bus.respLayer1.occupancy         288719870                       # Layer occupancy (ticks)
system.tol3bus.respLayer1.utilization             0.7                       # Layer utilization (%)
system.tol3bus.respLayer2.occupancy         289726014                       # Layer occupancy (ticks)
system.tol3bus.respLayer2.utilization             0.7                       # Layer utilization (%)
system.tol3bus.respLayer3.occupancy         286529646                       # Layer occupancy (ticks)
system.tol3bus.respLayer3.utilization             0.7                       # Layer utilization (%)

---------- End Simulation Statistics   ----------
