
---------- Begin Simulation Statistics ----------
sim_seconds                                  0.035386                       # Number of seconds simulated
sim_ticks                                 35385617628                       # Number of ticks simulated
final_tick                                35385617628                       # Number of ticks from beginning of simulation (restored from checkpoints and never reset)
sim_freq                                 1000000000000                       # Frequency of simulated ticks
host_inst_rate                                 162526                       # Simulator instruction rate (inst/s)
host_op_rate                                   240308                       # Simulator op (including micro ops) rate (op/s)
host_tick_rate                               14388477                       # Simulator tick rate (ticks/s)
host_mem_usage                                8677176                       # Number of bytes of host memory used
host_seconds                                  2459.30                       # Real time elapsed on the host
sim_insts                                   399700771                       # Number of instructions simulated
sim_ops                                     590989451                       # Number of ops (including micro ops) simulated
system.voltage_domain.voltage                       1                       # Voltage in Volts
system.clk_domain.clock                          1000                       # Clock period in ticks
system.mem_ctrls0.pwrStateResidencyTicks::UNDEFINED  35385617628                       # Cumulative time (in ticks) in various power states
system.mem_ctrls0.bytes_read::cpu0.inst         33920                       # Number of bytes read from this memory
system.mem_ctrls0.bytes_read::cpu0.data        734528                       # Number of bytes read from this memory
system.mem_ctrls0.bytes_read::cpu1.inst         34816                       # Number of bytes read from this memory
system.mem_ctrls0.bytes_read::cpu1.data        735104                       # Number of bytes read from this memory
system.mem_ctrls0.bytes_read::cpu2.inst         34496                       # Number of bytes read from this memory
system.mem_ctrls0.bytes_read::cpu2.data        735360                       # Number of bytes read from this memory
system.mem_ctrls0.bytes_read::cpu3.inst         34688                       # Number of bytes read from this memory
system.mem_ctrls0.bytes_read::cpu3.data        735296                       # Number of bytes read from this memory
system.mem_ctrls0.bytes_read::total           3078208                       # Number of bytes read from this memory
system.mem_ctrls0.bytes_inst_read::cpu0.inst        33920                       # Number of instructions bytes read from this memory
system.mem_ctrls0.bytes_inst_read::cpu1.inst        34816                       # Number of instructions bytes read from this memory
system.mem_ctrls0.bytes_inst_read::cpu2.inst        34496                       # Number of instructions bytes read from this memory
system.mem_ctrls0.bytes_inst_read::cpu3.inst        34688                       # Number of instructions bytes read from this memory
system.mem_ctrls0.bytes_inst_read::total       137920                       # Number of instructions bytes read from this memory
system.mem_ctrls0.num_reads::cpu0.inst            530                       # Number of read requests responded to by this memory
system.mem_ctrls0.num_reads::cpu0.data          11477                       # Number of read requests responded to by this memory
system.mem_ctrls0.num_reads::cpu1.inst            544                       # Number of read requests responded to by this memory
system.mem_ctrls0.num_reads::cpu1.data          11486                       # Number of read requests responded to by this memory
system.mem_ctrls0.num_reads::cpu2.inst            539                       # Number of read requests responded to by this memory
system.mem_ctrls0.num_reads::cpu2.data          11490                       # Number of read requests responded to by this memory
system.mem_ctrls0.num_reads::cpu3.inst            542                       # Number of read requests responded to by this memory
system.mem_ctrls0.num_reads::cpu3.data          11489                       # Number of read requests responded to by this memory
system.mem_ctrls0.num_reads::total              48097                       # Number of read requests responded to by this memory
system.mem_ctrls0.bw_read::cpu0.inst           958582                       # Total read bandwidth from this memory (bytes/s)
system.mem_ctrls0.bw_read::cpu0.data         20757812                       # Total read bandwidth from this memory (bytes/s)
system.mem_ctrls0.bw_read::cpu1.inst           983903                       # Total read bandwidth from this memory (bytes/s)
system.mem_ctrls0.bw_read::cpu1.data         20774090                       # Total read bandwidth from this memory (bytes/s)
system.mem_ctrls0.bw_read::cpu2.inst           974859                       # Total read bandwidth from this memory (bytes/s)
system.mem_ctrls0.bw_read::cpu2.data         20781324                       # Total read bandwidth from this memory (bytes/s)
system.mem_ctrls0.bw_read::cpu3.inst           980285                       # Total read bandwidth from this memory (bytes/s)
system.mem_ctrls0.bw_read::cpu3.data         20779516                       # Total read bandwidth from this memory (bytes/s)
system.mem_ctrls0.bw_read::total             86990371                       # Total read bandwidth from this memory (bytes/s)
system.mem_ctrls0.bw_inst_read::cpu0.inst       958582                       # Instruction read bandwidth from this memory (bytes/s)
system.mem_ctrls0.bw_inst_read::cpu1.inst       983903                       # Instruction read bandwidth from this memory (bytes/s)
system.mem_ctrls0.bw_inst_read::cpu2.inst       974859                       # Instruction read bandwidth from this memory (bytes/s)
system.mem_ctrls0.bw_inst_read::cpu3.inst       980285                       # Instruction read bandwidth from this memory (bytes/s)
system.mem_ctrls0.bw_inst_read::total         3897629                       # Instruction read bandwidth from this memory (bytes/s)
system.mem_ctrls0.bw_total::cpu0.inst          958582                       # Total bandwidth to/from this memory (bytes/s)
system.mem_ctrls0.bw_total::cpu0.data        20757812                       # Total bandwidth to/from this memory (bytes/s)
system.mem_ctrls0.bw_total::cpu1.inst          983903                       # Total bandwidth to/from this memory (bytes/s)
system.mem_ctrls0.bw_total::cpu1.data        20774090                       # Total bandwidth to/from this memory (bytes/s)
system.mem_ctrls0.bw_total::cpu2.inst          974859                       # Total bandwidth to/from this memory (bytes/s)
system.mem_ctrls0.bw_total::cpu2.data        20781324                       # Total bandwidth to/from this memory (bytes/s)
system.mem_ctrls0.bw_total::cpu3.inst          980285                       # Total bandwidth to/from this memory (bytes/s)
system.mem_ctrls0.bw_total::cpu3.data        20779516                       # Total bandwidth to/from this memory (bytes/s)
system.mem_ctrls0.bw_total::total            86990371                       # Total bandwidth to/from this memory (bytes/s)
system.mem_ctrls0.readReqs                      48097                       # Number of read requests accepted
system.mem_ctrls0.writeReqs                         0                       # Number of write requests accepted
system.mem_ctrls0.readBursts                    48097                       # Number of DRAM read bursts, including those serviced by the write queue
system.mem_ctrls0.writeBursts                       0                       # Number of DRAM write bursts, including those merged in the write queue
system.mem_ctrls0.bytesReadDRAM               3078208                       # Total number of bytes read from DRAM
system.mem_ctrls0.bytesReadWrQ                      0                       # Total number of bytes read from write queue
system.mem_ctrls0.bytesWritten                      0                       # Total number of bytes written to DRAM
system.mem_ctrls0.bytesReadSys                3078208                       # Total read bytes from the system interface side
system.mem_ctrls0.bytesWrittenSys                   0                       # Total written bytes from the system interface side
system.mem_ctrls0.servicedByWrQ                     0                       # Number of DRAM read bursts serviced by the write queue
system.mem_ctrls0.mergedWrBursts                    0                       # Number of DRAM write bursts merged with an existing one
system.mem_ctrls0.neitherReadNorWriteReqs            0                       # Number of requests that are neither read nor write
system.mem_ctrls0.perBankRdBursts::0             2804                       # Per bank write bursts
system.mem_ctrls0.perBankRdBursts::1             3068                       # Per bank write bursts
system.mem_ctrls0.perBankRdBursts::2             3125                       # Per bank write bursts
system.mem_ctrls0.perBankRdBursts::3             3210                       # Per bank write bursts
system.mem_ctrls0.perBankRdBursts::4             3222                       # Per bank write bursts
system.mem_ctrls0.perBankRdBursts::5             3284                       # Per bank write bursts
system.mem_ctrls0.perBankRdBursts::6             3342                       # Per bank write bursts
system.mem_ctrls0.perBankRdBursts::7             3262                       # Per bank write bursts
system.mem_ctrls0.perBankRdBursts::8             3276                       # Per bank write bursts
system.mem_ctrls0.perBankRdBursts::9             2952                       # Per bank write bursts
system.mem_ctrls0.perBankRdBursts::10            2820                       # Per bank write bursts
system.mem_ctrls0.perBankRdBursts::11            2818                       # Per bank write bursts
system.mem_ctrls0.perBankRdBursts::12            2794                       # Per bank write bursts
system.mem_ctrls0.perBankRdBursts::13            2742                       # Per bank write bursts
system.mem_ctrls0.perBankRdBursts::14            2676                       # Per bank write bursts
system.mem_ctrls0.perBankRdBursts::15            2702                       # Per bank write bursts
system.mem_ctrls0.perBankWrBursts::0                0                       # Per bank write bursts
system.mem_ctrls0.perBankWrBursts::1                0                       # Per bank write bursts
system.mem_ctrls0.perBankWrBursts::2                0                       # Per bank write bursts
system.mem_ctrls0.perBankWrBursts::3                0                       # Per bank write bursts
system.mem_ctrls0.perBankWrBursts::4                0                       # Per bank write bursts
system.mem_ctrls0.perBankWrBursts::5                0                       # Per bank write bursts
system.mem_ctrls0.perBankWrBursts::6                0                       # Per bank write bursts
system.mem_ctrls0.perBankWrBursts::7                0                       # Per bank write bursts
system.mem_ctrls0.perBankWrBursts::8                0                       # Per bank write bursts
system.mem_ctrls0.perBankWrBursts::9                0                       # Per bank write bursts
system.mem_ctrls0.perBankWrBursts::10               0                       # Per bank write bursts
system.mem_ctrls0.perBankWrBursts::11               0                       # Per bank write bursts
system.mem_ctrls0.perBankWrBursts::12               0                       # Per bank write bursts
system.mem_ctrls0.perBankWrBursts::13               0                       # Per bank write bursts
system.mem_ctrls0.perBankWrBursts::14               0                       # Per bank write bursts
system.mem_ctrls0.perBankWrBursts::15               0                       # Per bank write bursts
system.mem_ctrls0.numRdRetry                        0                       # Number of times read queue was full causing retry
system.mem_ctrls0.numWrRetry                        0                       # Number of times write queue was full causing retry
system.mem_ctrls0.totGap                  21923113608                       # Total gap between requests
system.mem_ctrls0.readPktSize::0                    0                       # Read request sizes (log2)
system.mem_ctrls0.readPktSize::1                    0                       # Read request sizes (log2)
system.mem_ctrls0.readPktSize::2                    0                       # Read request sizes (log2)
system.mem_ctrls0.readPktSize::3                    0                       # Read request sizes (log2)
system.mem_ctrls0.readPktSize::4                    0                       # Read request sizes (log2)
system.mem_ctrls0.readPktSize::5                    0                       # Read request sizes (log2)
system.mem_ctrls0.readPktSize::6                48097                       # Read request sizes (log2)
system.mem_ctrls0.writePktSize::0                   0                       # Write request sizes (log2)
system.mem_ctrls0.writePktSize::1                   0                       # Write request sizes (log2)
system.mem_ctrls0.writePktSize::2                   0                       # Write request sizes (log2)
system.mem_ctrls0.writePktSize::3                   0                       # Write request sizes (log2)
system.mem_ctrls0.writePktSize::4                   0                       # Write request sizes (log2)
system.mem_ctrls0.writePktSize::5                   0                       # Write request sizes (log2)
system.mem_ctrls0.writePktSize::6                   0                       # Write request sizes (log2)
system.mem_ctrls0.rdQLenPdf::0                  26766                       # What read queue length does an incoming req see
system.mem_ctrls0.rdQLenPdf::1                  13917                       # What read queue length does an incoming req see
system.mem_ctrls0.rdQLenPdf::2                   5965                       # What read queue length does an incoming req see
system.mem_ctrls0.rdQLenPdf::3                   1285                       # What read queue length does an incoming req see
system.mem_ctrls0.rdQLenPdf::4                    106                       # What read queue length does an incoming req see
system.mem_ctrls0.rdQLenPdf::5                     43                       # What read queue length does an incoming req see
system.mem_ctrls0.rdQLenPdf::6                     11                       # What read queue length does an incoming req see
system.mem_ctrls0.rdQLenPdf::7                      3                       # What read queue length does an incoming req see
system.mem_ctrls0.rdQLenPdf::8                      1                       # What read queue length does an incoming req see
system.mem_ctrls0.rdQLenPdf::9                      0                       # What read queue length does an incoming req see
system.mem_ctrls0.rdQLenPdf::10                     0                       # What read queue length does an incoming req see
system.mem_ctrls0.rdQLenPdf::11                     0                       # What read queue length does an incoming req see
system.mem_ctrls0.rdQLenPdf::12                     0                       # What read queue length does an incoming req see
system.mem_ctrls0.rdQLenPdf::13                     0                       # What read queue length does an incoming req see
system.mem_ctrls0.rdQLenPdf::14                     0                       # What read queue length does an incoming req see
system.mem_ctrls0.rdQLenPdf::15                     0                       # What read queue length does an incoming req see
system.mem_ctrls0.rdQLenPdf::16                     0                       # What read queue length does an incoming req see
system.mem_ctrls0.rdQLenPdf::17                     0                       # What read queue length does an incoming req see
system.mem_ctrls0.rdQLenPdf::18                     0                       # What read queue length does an incoming req see
system.mem_ctrls0.rdQLenPdf::19                     0                       # What read queue length does an incoming req see
system.mem_ctrls0.rdQLenPdf::20                     0                       # What read queue length does an incoming req see
system.mem_ctrls0.rdQLenPdf::21                     0                       # What read queue length does an incoming req see
system.mem_ctrls0.rdQLenPdf::22                     0                       # What read queue length does an incoming req see
system.mem_ctrls0.rdQLenPdf::23                     0                       # What read queue length does an incoming req see
system.mem_ctrls0.rdQLenPdf::24                     0                       # What read queue length does an incoming req see
system.mem_ctrls0.rdQLenPdf::25                     0                       # What read queue length does an incoming req see
system.mem_ctrls0.rdQLenPdf::26                     0                       # What read queue length does an incoming req see
system.mem_ctrls0.rdQLenPdf::27                     0                       # What read queue length does an incoming req see
system.mem_ctrls0.rdQLenPdf::28                     0                       # What read queue length does an incoming req see
system.mem_ctrls0.rdQLenPdf::29                     0                       # What read queue length does an incoming req see
system.mem_ctrls0.rdQLenPdf::30                     0                       # What read queue length does an incoming req see
system.mem_ctrls0.rdQLenPdf::31                     0                       # What read queue length does an incoming req see
system.mem_ctrls0.wrQLenPdf::0                      0                       # What write queue length does an incoming req see
system.mem_ctrls0.wrQLenPdf::1                      0                       # What write queue length does an incoming req see
system.mem_ctrls0.wrQLenPdf::2                      0                       # What write queue length does an incoming req see
system.mem_ctrls0.wrQLenPdf::3                      0                       # What write queue length does an incoming req see
system.mem_ctrls0.wrQLenPdf::4                      0                       # What write queue length does an incoming req see
system.mem_ctrls0.wrQLenPdf::5                      0                       # What write queue length does an incoming req see
system.mem_ctrls0.wrQLenPdf::6                      0                       # What write queue length does an incoming req see
system.mem_ctrls0.wrQLenPdf::7                      0                       # What write queue length does an incoming req see
system.mem_ctrls0.wrQLenPdf::8                      0                       # What write queue length does an incoming req see
system.mem_ctrls0.wrQLenPdf::9                      0                       # What write queue length does an incoming req see
system.mem_ctrls0.wrQLenPdf::10                     0                       # What write queue length does an incoming req see
system.mem_ctrls0.wrQLenPdf::11                     0                       # What write queue length does an incoming req see
system.mem_ctrls0.wrQLenPdf::12                     0                       # What write queue length does an incoming req see
system.mem_ctrls0.wrQLenPdf::13                     0                       # What write queue length does an incoming req see
system.mem_ctrls0.wrQLenPdf::14                     0                       # What write queue length does an incoming req see
system.mem_ctrls0.wrQLenPdf::15                     0                       # What write queue length does an incoming req see
system.mem_ctrls0.wrQLenPdf::16                     0                       # What write queue length does an incoming req see
system.mem_ctrls0.wrQLenPdf::17                     0                       # What write queue length does an incoming req see
system.mem_ctrls0.wrQLenPdf::18                     0                       # What write queue length does an incoming req see
system.mem_ctrls0.wrQLenPdf::19                     0                       # What write queue length does an incoming req see
system.mem_ctrls0.wrQLenPdf::20                     0                       # What write queue length does an incoming req see
system.mem_ctrls0.wrQLenPdf::21                     0                       # What write queue length does an incoming req see
system.mem_ctrls0.wrQLenPdf::22                     0                       # What write queue length does an incoming req see
system.mem_ctrls0.wrQLenPdf::23                     0                       # What write queue length does an incoming req see
system.mem_ctrls0.wrQLenPdf::24                     0                       # What write queue length does an incoming req see
system.mem_ctrls0.wrQLenPdf::25                     0                       # What write queue length does an incoming req see
system.mem_ctrls0.wrQLenPdf::26                     0                       # What write queue length does an incoming req see
system.mem_ctrls0.wrQLenPdf::27                     0                       # What write queue length does an incoming req see
system.mem_ctrls0.wrQLenPdf::28                     0                       # What write queue length does an incoming req see
system.mem_ctrls0.wrQLenPdf::29                     0                       # What write queue length does an incoming req see
system.mem_ctrls0.wrQLenPdf::30                     0                       # What write queue length does an incoming req see
system.mem_ctrls0.wrQLenPdf::31                     0                       # What write queue length does an incoming req see
system.mem_ctrls0.wrQLenPdf::32                     0                       # What write queue length does an incoming req see
system.mem_ctrls0.wrQLenPdf::33                     0                       # What write queue length does an incoming req see
system.mem_ctrls0.wrQLenPdf::34                     0                       # What write queue length does an incoming req see
system.mem_ctrls0.wrQLenPdf::35                     0                       # What write queue length does an incoming req see
system.mem_ctrls0.wrQLenPdf::36                     0                       # What write queue length does an incoming req see
system.mem_ctrls0.wrQLenPdf::37                     0                       # What write queue length does an incoming req see
system.mem_ctrls0.wrQLenPdf::38                     0                       # What write queue length does an incoming req see
system.mem_ctrls0.wrQLenPdf::39                     0                       # What write queue length does an incoming req see
system.mem_ctrls0.wrQLenPdf::40                     0                       # What write queue length does an incoming req see
system.mem_ctrls0.wrQLenPdf::41                     0                       # What write queue length does an incoming req see
system.mem_ctrls0.wrQLenPdf::42                     0                       # What write queue length does an incoming req see
system.mem_ctrls0.wrQLenPdf::43                     0                       # What write queue length does an incoming req see
system.mem_ctrls0.wrQLenPdf::44                     0                       # What write queue length does an incoming req see
system.mem_ctrls0.wrQLenPdf::45                     0                       # What write queue length does an incoming req see
system.mem_ctrls0.wrQLenPdf::46                     0                       # What write queue length does an incoming req see
system.mem_ctrls0.wrQLenPdf::47                     0                       # What write queue length does an incoming req see
system.mem_ctrls0.wrQLenPdf::48                     0                       # What write queue length does an incoming req see
system.mem_ctrls0.wrQLenPdf::49                     0                       # What write queue length does an incoming req see
system.mem_ctrls0.wrQLenPdf::50                     0                       # What write queue length does an incoming req see
system.mem_ctrls0.wrQLenPdf::51                     0                       # What write queue length does an incoming req see
system.mem_ctrls0.wrQLenPdf::52                     0                       # What write queue length does an incoming req see
system.mem_ctrls0.wrQLenPdf::53                     0                       # What write queue length does an incoming req see
system.mem_ctrls0.wrQLenPdf::54                     0                       # What write queue length does an incoming req see
system.mem_ctrls0.wrQLenPdf::55                     0                       # What write queue length does an incoming req see
system.mem_ctrls0.wrQLenPdf::56                     0                       # What write queue length does an incoming req see
system.mem_ctrls0.wrQLenPdf::57                     0                       # What write queue length does an incoming req see
system.mem_ctrls0.wrQLenPdf::58                     0                       # What write queue length does an incoming req see
system.mem_ctrls0.wrQLenPdf::59                     0                       # What write queue length does an incoming req see
system.mem_ctrls0.wrQLenPdf::60                     0                       # What write queue length does an incoming req see
system.mem_ctrls0.wrQLenPdf::61                     0                       # What write queue length does an incoming req see
system.mem_ctrls0.wrQLenPdf::62                     0                       # What write queue length does an incoming req see
system.mem_ctrls0.wrQLenPdf::63                     0                       # What write queue length does an incoming req see
system.mem_ctrls0.bytesPerActivate::samples        20347                       # Bytes accessed per row activation
system.mem_ctrls0.bytesPerActivate::mean   151.285595                       # Bytes accessed per row activation
system.mem_ctrls0.bytesPerActivate::gmean    97.808073                       # Bytes accessed per row activation
system.mem_ctrls0.bytesPerActivate::stdev   214.330752                       # Bytes accessed per row activation
system.mem_ctrls0.bytesPerActivate::0-127        13599     66.84%     66.84% # Bytes accessed per row activation
system.mem_ctrls0.bytesPerActivate::128-255         4244     20.86%     87.69% # Bytes accessed per row activation
system.mem_ctrls0.bytesPerActivate::256-383          237      1.16%     88.86% # Bytes accessed per row activation
system.mem_ctrls0.bytesPerActivate::384-511          516      2.54%     91.39% # Bytes accessed per row activation
system.mem_ctrls0.bytesPerActivate::512-639          592      2.91%     94.30% # Bytes accessed per row activation
system.mem_ctrls0.bytesPerActivate::640-767          300      1.47%     95.78% # Bytes accessed per row activation
system.mem_ctrls0.bytesPerActivate::768-895           59      0.29%     96.07% # Bytes accessed per row activation
system.mem_ctrls0.bytesPerActivate::896-1023           59      0.29%     96.36% # Bytes accessed per row activation
system.mem_ctrls0.bytesPerActivate::1024-1151          741      3.64%    100.00% # Bytes accessed per row activation
system.mem_ctrls0.bytesPerActivate::total        20347                       # Bytes accessed per row activation
system.mem_ctrls0.totQLat                  1221905659                       # Total ticks spent queuing
system.mem_ctrls0.totMemAccLat             2123724409                       # Total ticks spent from burst creation until serviced by the DRAM
system.mem_ctrls0.totBusLat                 240485000                       # Total ticks spent in databus transfers
system.mem_ctrls0.avgQLat                    25405.03                       # Average queueing delay per DRAM burst
system.mem_ctrls0.avgBusLat                   5000.00                       # Average bus latency per DRAM burst
system.mem_ctrls0.avgMemAccLat               44155.03                       # Average memory access latency per DRAM burst
system.mem_ctrls0.avgRdBW                       86.99                       # Average DRAM read bandwidth in MiByte/s
system.mem_ctrls0.avgWrBW                        0.00                       # Average achieved write bandwidth in MiByte/s
system.mem_ctrls0.avgRdBWSys                    86.99                       # Average system read bandwidth in MiByte/s
system.mem_ctrls0.avgWrBWSys                     0.00                       # Average system write bandwidth in MiByte/s
system.mem_ctrls0.peakBW                     12800.00                       # Theoretical peak bandwidth in MiByte/s
system.mem_ctrls0.busUtil                        0.68                       # Data bus utilization in percentage
system.mem_ctrls0.busUtilRead                    0.68                       # Data bus utilization in percentage for reads
system.mem_ctrls0.busUtilWrite                   0.00                       # Data bus utilization in percentage for writes
system.mem_ctrls0.avgRdQLen                      1.14                       # Average read queue length when enqueuing
system.mem_ctrls0.avgWrQLen                      0.00                       # Average write queue length when enqueuing
system.mem_ctrls0.readRowHits                   27750                       # Number of row buffer hits during reads
system.mem_ctrls0.writeRowHits                      0                       # Number of row buffer hits during writes
system.mem_ctrls0.readRowHitRate                57.70                       # Row buffer hit rate for reads
system.mem_ctrls0.writeRowHitRate                 nan                       # Row buffer hit rate for writes
system.mem_ctrls0.avgGap                    455810.42                       # Average gap between requests
system.mem_ctrls0.pageHitRate                   57.70                       # Row buffer hit rate, read and write combined
system.mem_ctrls0_0.actEnergy                78782760                       # Energy for activate commands per rank (pJ)
system.mem_ctrls0_0.preEnergy                41874030                       # Energy for precharge commands per rank (pJ)
system.mem_ctrls0_0.readEnergy              180763380                       # Energy for read commands per rank (pJ)
system.mem_ctrls0_0.writeEnergy                     0                       # Energy for write commands per rank (pJ)
system.mem_ctrls0_0.refreshEnergy        314081040.000000                       # Energy for refresh commands per rank (pJ)
system.mem_ctrls0_0.actBackEnergy           402176040                       # Energy for active background per rank (pJ)
system.mem_ctrls0_0.preBackEnergy            14373120                       # Energy for precharge background per rank (pJ)
system.mem_ctrls0_0.actPowerDownEnergy     1318212210                       # Energy for active power-down per rank (pJ)
system.mem_ctrls0_0.prePowerDownEnergy       45341760                       # Energy for precharge power-down per rank (pJ)
system.mem_ctrls0_0.selfRefreshEnergy      7553624880                       # Energy for self refresh per rank (pJ)
system.mem_ctrls0_0.totalEnergy            9949229220                       # Total energy per rank (pJ)
system.mem_ctrls0_0.averagePower           281.165897                       # Core power per rank (mW)
system.mem_ctrls0_0.totalIdleTime         21015325094                       # Total Idle time Per DRAM Rank
system.mem_ctrls0_0.memoryStateTime::IDLE      4785623                       # Time in different power states
system.mem_ctrls0_0.memoryStateTime::REF    132908000                       # Time in different power states
system.mem_ctrls0_0.memoryStateTime::SREF  31457329628                       # Time in different power states
system.mem_ctrls0_0.memoryStateTime::PRE_PDN    118040437                       # Time in different power states
system.mem_ctrls0_0.memoryStateTime::ACT    781863955                       # Time in different power states
system.mem_ctrls0_0.memoryStateTime::ACT_PDN   2890689985                       # Time in different power states
system.mem_ctrls0_1.actEnergy                66494820                       # Energy for activate commands per rank (pJ)
system.mem_ctrls0_1.preEnergy                35342835                       # Energy for precharge commands per rank (pJ)
system.mem_ctrls0_1.readEnergy              162649200                       # Energy for read commands per rank (pJ)
system.mem_ctrls0_1.writeEnergy                     0                       # Energy for write commands per rank (pJ)
system.mem_ctrls0_1.refreshEnergy        285807600.000000                       # Energy for refresh commands per rank (pJ)
system.mem_ctrls0_1.actBackEnergy           353838900                       # Energy for active background per rank (pJ)
system.mem_ctrls0_1.preBackEnergy            11859360                       # Energy for precharge background per rank (pJ)
system.mem_ctrls0_1.actPowerDownEnergy     1178325660                       # Energy for active power-down per rank (pJ)
system.mem_ctrls0_1.prePowerDownEnergy       63255360                       # Energy for precharge power-down per rank (pJ)
system.mem_ctrls0_1.selfRefreshEnergy      7644169560                       # Energy for self refresh per rank (pJ)
system.mem_ctrls0_1.totalEnergy            9801743295                       # Total energy per rank (pJ)
system.mem_ctrls0_1.averagePower           276.997934                       # Core power per rank (mW)
system.mem_ctrls0_1.totalIdleTime         21123876085                       # Total Idle time Per DRAM Rank
system.mem_ctrls0_1.memoryStateTime::IDLE      4940000                       # Time in different power states
system.mem_ctrls0_1.memoryStateTime::REF    120960000                       # Time in different power states
system.mem_ctrls0_1.memoryStateTime::SREF  31829997628                       # Time in different power states
system.mem_ctrls0_1.memoryStateTime::PRE_PDN    164754550                       # Time in different power states
system.mem_ctrls0_1.memoryStateTime::ACT    680878687                       # Time in different power states
system.mem_ctrls0_1.memoryStateTime::ACT_PDN   2584086763                       # Time in different power states
system.mem_ctrls1.pwrStateResidencyTicks::UNDEFINED  35385617628                       # Cumulative time (in ticks) in various power states
system.mem_ctrls1.bytes_read::cpu0.inst         34688                       # Number of bytes read from this memory
system.mem_ctrls1.bytes_read::cpu0.data        735296                       # Number of bytes read from this memory
system.mem_ctrls1.bytes_read::cpu1.inst         34048                       # Number of bytes read from this memory
system.mem_ctrls1.bytes_read::cpu1.data        734528                       # Number of bytes read from this memory
system.mem_ctrls1.bytes_read::cpu2.inst         33856                       # Number of bytes read from this memory
system.mem_ctrls1.bytes_read::cpu2.data        734272                       # Number of bytes read from this memory
system.mem_ctrls1.bytes_read::cpu3.inst         34048                       # Number of bytes read from this memory
system.mem_ctrls1.bytes_read::cpu3.data        734208                       # Number of bytes read from this memory
system.mem_ctrls1.bytes_read::total           3074944                       # Number of bytes read from this memory
system.mem_ctrls1.bytes_inst_read::cpu0.inst        34688                       # Number of instructions bytes read from this memory
system.mem_ctrls1.bytes_inst_read::cpu1.inst        34048                       # Number of instructions bytes read from this memory
system.mem_ctrls1.bytes_inst_read::cpu2.inst        33856                       # Number of instructions bytes read from this memory
system.mem_ctrls1.bytes_inst_read::cpu3.inst        34048                       # Number of instructions bytes read from this memory
system.mem_ctrls1.bytes_inst_read::total       136640                       # Number of instructions bytes read from this memory
system.mem_ctrls1.num_reads::cpu0.inst            542                       # Number of read requests responded to by this memory
system.mem_ctrls1.num_reads::cpu0.data          11489                       # Number of read requests responded to by this memory
system.mem_ctrls1.num_reads::cpu1.inst            532                       # Number of read requests responded to by this memory
system.mem_ctrls1.num_reads::cpu1.data          11477                       # Number of read requests responded to by this memory
system.mem_ctrls1.num_reads::cpu2.inst            529                       # Number of read requests responded to by this memory
system.mem_ctrls1.num_reads::cpu2.data          11473                       # Number of read requests responded to by this memory
system.mem_ctrls1.num_reads::cpu3.inst            532                       # Number of read requests responded to by this memory
system.mem_ctrls1.num_reads::cpu3.data          11472                       # Number of read requests responded to by this memory
system.mem_ctrls1.num_reads::total              48046                       # Number of read requests responded to by this memory
system.mem_ctrls1.bw_read::cpu0.inst           980285                       # Total read bandwidth from this memory (bytes/s)
system.mem_ctrls1.bw_read::cpu0.data         20779516                       # Total read bandwidth from this memory (bytes/s)
system.mem_ctrls1.bw_read::cpu1.inst           962199                       # Total read bandwidth from this memory (bytes/s)
system.mem_ctrls1.bw_read::cpu1.data         20757812                       # Total read bandwidth from this memory (bytes/s)
system.mem_ctrls1.bw_read::cpu2.inst           956773                       # Total read bandwidth from this memory (bytes/s)
system.mem_ctrls1.bw_read::cpu2.data         20750577                       # Total read bandwidth from this memory (bytes/s)
system.mem_ctrls1.bw_read::cpu3.inst           962199                       # Total read bandwidth from this memory (bytes/s)
system.mem_ctrls1.bw_read::cpu3.data         20748769                       # Total read bandwidth from this memory (bytes/s)
system.mem_ctrls1.bw_read::total             86898130                       # Total read bandwidth from this memory (bytes/s)
system.mem_ctrls1.bw_inst_read::cpu0.inst       980285                       # Instruction read bandwidth from this memory (bytes/s)
system.mem_ctrls1.bw_inst_read::cpu1.inst       962199                       # Instruction read bandwidth from this memory (bytes/s)
system.mem_ctrls1.bw_inst_read::cpu2.inst       956773                       # Instruction read bandwidth from this memory (bytes/s)
system.mem_ctrls1.bw_inst_read::cpu3.inst       962199                       # Instruction read bandwidth from this memory (bytes/s)
system.mem_ctrls1.bw_inst_read::total         3861456                       # Instruction read bandwidth from this memory (bytes/s)
system.mem_ctrls1.bw_total::cpu0.inst          980285                       # Total bandwidth to/from this memory (bytes/s)
system.mem_ctrls1.bw_total::cpu0.data        20779516                       # Total bandwidth to/from this memory (bytes/s)
system.mem_ctrls1.bw_total::cpu1.inst          962199                       # Total bandwidth to/from this memory (bytes/s)
system.mem_ctrls1.bw_total::cpu1.data        20757812                       # Total bandwidth to/from this memory (bytes/s)
system.mem_ctrls1.bw_total::cpu2.inst          956773                       # Total bandwidth to/from this memory (bytes/s)
system.mem_ctrls1.bw_total::cpu2.data        20750577                       # Total bandwidth to/from this memory (bytes/s)
system.mem_ctrls1.bw_total::cpu3.inst          962199                       # Total bandwidth to/from this memory (bytes/s)
system.mem_ctrls1.bw_total::cpu3.data        20748769                       # Total bandwidth to/from this memory (bytes/s)
system.mem_ctrls1.bw_total::total            86898130                       # Total bandwidth to/from this memory (bytes/s)
system.mem_ctrls1.readReqs                      48046                       # Number of read requests accepted
system.mem_ctrls1.writeReqs                         0                       # Number of write requests accepted
system.mem_ctrls1.readBursts                    48046                       # Number of DRAM read bursts, including those serviced by the write queue
system.mem_ctrls1.writeBursts                       0                       # Number of DRAM write bursts, including those merged in the write queue
system.mem_ctrls1.bytesReadDRAM               3074944                       # Total number of bytes read from DRAM
system.mem_ctrls1.bytesReadWrQ                      0                       # Total number of bytes read from write queue
system.mem_ctrls1.bytesWritten                      0                       # Total number of bytes written to DRAM
system.mem_ctrls1.bytesReadSys                3074944                       # Total read bytes from the system interface side
system.mem_ctrls1.bytesWrittenSys                   0                       # Total written bytes from the system interface side
system.mem_ctrls1.servicedByWrQ                     0                       # Number of DRAM read bursts serviced by the write queue
system.mem_ctrls1.mergedWrBursts                    0                       # Number of DRAM write bursts merged with an existing one
system.mem_ctrls1.neitherReadNorWriteReqs            0                       # Number of requests that are neither read nor write
system.mem_ctrls1.perBankRdBursts::0             2794                       # Per bank write bursts
system.mem_ctrls1.perBankRdBursts::1             3072                       # Per bank write bursts
system.mem_ctrls1.perBankRdBursts::2             3121                       # Per bank write bursts
system.mem_ctrls1.perBankRdBursts::3             3203                       # Per bank write bursts
system.mem_ctrls1.perBankRdBursts::4             3223                       # Per bank write bursts
system.mem_ctrls1.perBankRdBursts::5             3265                       # Per bank write bursts
system.mem_ctrls1.perBankRdBursts::6             3346                       # Per bank write bursts
system.mem_ctrls1.perBankRdBursts::7             3257                       # Per bank write bursts
system.mem_ctrls1.perBankRdBursts::8             3283                       # Per bank write bursts
system.mem_ctrls1.perBankRdBursts::9             2941                       # Per bank write bursts
system.mem_ctrls1.perBankRdBursts::10            2817                       # Per bank write bursts
system.mem_ctrls1.perBankRdBursts::11            2832                       # Per bank write bursts
system.mem_ctrls1.perBankRdBursts::12            2794                       # Per bank write bursts
system.mem_ctrls1.perBankRdBursts::13            2731                       # Per bank write bursts
system.mem_ctrls1.perBankRdBursts::14            2682                       # Per bank write bursts
system.mem_ctrls1.perBankRdBursts::15            2685                       # Per bank write bursts
system.mem_ctrls1.perBankWrBursts::0                0                       # Per bank write bursts
system.mem_ctrls1.perBankWrBursts::1                0                       # Per bank write bursts
system.mem_ctrls1.perBankWrBursts::2                0                       # Per bank write bursts
system.mem_ctrls1.perBankWrBursts::3                0                       # Per bank write bursts
system.mem_ctrls1.perBankWrBursts::4                0                       # Per bank write bursts
system.mem_ctrls1.perBankWrBursts::5                0                       # Per bank write bursts
system.mem_ctrls1.perBankWrBursts::6                0                       # Per bank write bursts
system.mem_ctrls1.perBankWrBursts::7                0                       # Per bank write bursts
system.mem_ctrls1.perBankWrBursts::8                0                       # Per bank write bursts
system.mem_ctrls1.perBankWrBursts::9                0                       # Per bank write bursts
system.mem_ctrls1.perBankWrBursts::10               0                       # Per bank write bursts
system.mem_ctrls1.perBankWrBursts::11               0                       # Per bank write bursts
system.mem_ctrls1.perBankWrBursts::12               0                       # Per bank write bursts
system.mem_ctrls1.perBankWrBursts::13               0                       # Per bank write bursts
system.mem_ctrls1.perBankWrBursts::14               0                       # Per bank write bursts
system.mem_ctrls1.perBankWrBursts::15               0                       # Per bank write bursts
system.mem_ctrls1.numRdRetry                        0                       # Number of times read queue was full causing retry
system.mem_ctrls1.numWrRetry                        0                       # Number of times write queue was full causing retry
system.mem_ctrls1.totGap                  21925601097                       # Total gap between requests
system.mem_ctrls1.readPktSize::0                    0                       # Read request sizes (log2)
system.mem_ctrls1.readPktSize::1                    0                       # Read request sizes (log2)
system.mem_ctrls1.readPktSize::2                    0                       # Read request sizes (log2)
system.mem_ctrls1.readPktSize::3                    0                       # Read request sizes (log2)
system.mem_ctrls1.readPktSize::4                    0                       # Read request sizes (log2)
system.mem_ctrls1.readPktSize::5                    0                       # Read request sizes (log2)
system.mem_ctrls1.readPktSize::6                48046                       # Read request sizes (log2)
system.mem_ctrls1.writePktSize::0                   0                       # Write request sizes (log2)
system.mem_ctrls1.writePktSize::1                   0                       # Write request sizes (log2)
system.mem_ctrls1.writePktSize::2                   0                       # Write request sizes (log2)
system.mem_ctrls1.writePktSize::3                   0                       # Write request sizes (log2)
system.mem_ctrls1.writePktSize::4                   0                       # Write request sizes (log2)
system.mem_ctrls1.writePktSize::5                   0                       # Write request sizes (log2)
system.mem_ctrls1.writePktSize::6                   0                       # Write request sizes (log2)
system.mem_ctrls1.rdQLenPdf::0                  26806                       # What read queue length does an incoming req see
system.mem_ctrls1.rdQLenPdf::1                  13864                       # What read queue length does an incoming req see
system.mem_ctrls1.rdQLenPdf::2                   6004                       # What read queue length does an incoming req see
system.mem_ctrls1.rdQLenPdf::3                   1240                       # What read queue length does an incoming req see
system.mem_ctrls1.rdQLenPdf::4                     85                       # What read queue length does an incoming req see
system.mem_ctrls1.rdQLenPdf::5                     30                       # What read queue length does an incoming req see
system.mem_ctrls1.rdQLenPdf::6                      8                       # What read queue length does an incoming req see
system.mem_ctrls1.rdQLenPdf::7                      5                       # What read queue length does an incoming req see
system.mem_ctrls1.rdQLenPdf::8                      4                       # What read queue length does an incoming req see
system.mem_ctrls1.rdQLenPdf::9                      0                       # What read queue length does an incoming req see
system.mem_ctrls1.rdQLenPdf::10                     0                       # What read queue length does an incoming req see
system.mem_ctrls1.rdQLenPdf::11                     0                       # What read queue length does an incoming req see
system.mem_ctrls1.rdQLenPdf::12                     0                       # What read queue length does an incoming req see
system.mem_ctrls1.rdQLenPdf::13                     0                       # What read queue length does an incoming req see
system.mem_ctrls1.rdQLenPdf::14                     0                       # What read queue length does an incoming req see
system.mem_ctrls1.rdQLenPdf::15                     0                       # What read queue length does an incoming req see
system.mem_ctrls1.rdQLenPdf::16                     0                       # What read queue length does an incoming req see
system.mem_ctrls1.rdQLenPdf::17                     0                       # What read queue length does an incoming req see
system.mem_ctrls1.rdQLenPdf::18                     0                       # What read queue length does an incoming req see
system.mem_ctrls1.rdQLenPdf::19                     0                       # What read queue length does an incoming req see
system.mem_ctrls1.rdQLenPdf::20                     0                       # What read queue length does an incoming req see
system.mem_ctrls1.rdQLenPdf::21                     0                       # What read queue length does an incoming req see
system.mem_ctrls1.rdQLenPdf::22                     0                       # What read queue length does an incoming req see
system.mem_ctrls1.rdQLenPdf::23                     0                       # What read queue length does an incoming req see
system.mem_ctrls1.rdQLenPdf::24                     0                       # What read queue length does an incoming req see
system.mem_ctrls1.rdQLenPdf::25                     0                       # What read queue length does an incoming req see
system.mem_ctrls1.rdQLenPdf::26                     0                       # What read queue length does an incoming req see
system.mem_ctrls1.rdQLenPdf::27                     0                       # What read queue length does an incoming req see
system.mem_ctrls1.rdQLenPdf::28                     0                       # What read queue length does an incoming req see
system.mem_ctrls1.rdQLenPdf::29                     0                       # What read queue length does an incoming req see
system.mem_ctrls1.rdQLenPdf::30                     0                       # What read queue length does an incoming req see
system.mem_ctrls1.rdQLenPdf::31                     0                       # What read queue length does an incoming req see
system.mem_ctrls1.wrQLenPdf::0                      0                       # What write queue length does an incoming req see
system.mem_ctrls1.wrQLenPdf::1                      0                       # What write queue length does an incoming req see
system.mem_ctrls1.wrQLenPdf::2                      0                       # What write queue length does an incoming req see
system.mem_ctrls1.wrQLenPdf::3                      0                       # What write queue length does an incoming req see
system.mem_ctrls1.wrQLenPdf::4                      0                       # What write queue length does an incoming req see
system.mem_ctrls1.wrQLenPdf::5                      0                       # What write queue length does an incoming req see
system.mem_ctrls1.wrQLenPdf::6                      0                       # What write queue length does an incoming req see
system.mem_ctrls1.wrQLenPdf::7                      0                       # What write queue length does an incoming req see
system.mem_ctrls1.wrQLenPdf::8                      0                       # What write queue length does an incoming req see
system.mem_ctrls1.wrQLenPdf::9                      0                       # What write queue length does an incoming req see
system.mem_ctrls1.wrQLenPdf::10                     0                       # What write queue length does an incoming req see
system.mem_ctrls1.wrQLenPdf::11                     0                       # What write queue length does an incoming req see
system.mem_ctrls1.wrQLenPdf::12                     0                       # What write queue length does an incoming req see
system.mem_ctrls1.wrQLenPdf::13                     0                       # What write queue length does an incoming req see
system.mem_ctrls1.wrQLenPdf::14                     0                       # What write queue length does an incoming req see
system.mem_ctrls1.wrQLenPdf::15                     0                       # What write queue length does an incoming req see
system.mem_ctrls1.wrQLenPdf::16                     0                       # What write queue length does an incoming req see
system.mem_ctrls1.wrQLenPdf::17                     0                       # What write queue length does an incoming req see
system.mem_ctrls1.wrQLenPdf::18                     0                       # What write queue length does an incoming req see
system.mem_ctrls1.wrQLenPdf::19                     0                       # What write queue length does an incoming req see
system.mem_ctrls1.wrQLenPdf::20                     0                       # What write queue length does an incoming req see
system.mem_ctrls1.wrQLenPdf::21                     0                       # What write queue length does an incoming req see
system.mem_ctrls1.wrQLenPdf::22                     0                       # What write queue length does an incoming req see
system.mem_ctrls1.wrQLenPdf::23                     0                       # What write queue length does an incoming req see
system.mem_ctrls1.wrQLenPdf::24                     0                       # What write queue length does an incoming req see
system.mem_ctrls1.wrQLenPdf::25                     0                       # What write queue length does an incoming req see
system.mem_ctrls1.wrQLenPdf::26                     0                       # What write queue length does an incoming req see
system.mem_ctrls1.wrQLenPdf::27                     0                       # What write queue length does an incoming req see
system.mem_ctrls1.wrQLenPdf::28                     0                       # What write queue length does an incoming req see
system.mem_ctrls1.wrQLenPdf::29                     0                       # What write queue length does an incoming req see
system.mem_ctrls1.wrQLenPdf::30                     0                       # What write queue length does an incoming req see
system.mem_ctrls1.wrQLenPdf::31                     0                       # What write queue length does an incoming req see
system.mem_ctrls1.wrQLenPdf::32                     0                       # What write queue length does an incoming req see
system.mem_ctrls1.wrQLenPdf::33                     0                       # What write queue length does an incoming req see
system.mem_ctrls1.wrQLenPdf::34                     0                       # What write queue length does an incoming req see
system.mem_ctrls1.wrQLenPdf::35                     0                       # What write queue length does an incoming req see
system.mem_ctrls1.wrQLenPdf::36                     0                       # What write queue length does an incoming req see
system.mem_ctrls1.wrQLenPdf::37                     0                       # What write queue length does an incoming req see
system.mem_ctrls1.wrQLenPdf::38                     0                       # What write queue length does an incoming req see
system.mem_ctrls1.wrQLenPdf::39                     0                       # What write queue length does an incoming req see
system.mem_ctrls1.wrQLenPdf::40                     0                       # What write queue length does an incoming req see
system.mem_ctrls1.wrQLenPdf::41                     0                       # What write queue length does an incoming req see
system.mem_ctrls1.wrQLenPdf::42                     0                       # What write queue length does an incoming req see
system.mem_ctrls1.wrQLenPdf::43                     0                       # What write queue length does an incoming req see
system.mem_ctrls1.wrQLenPdf::44                     0                       # What write queue length does an incoming req see
system.mem_ctrls1.wrQLenPdf::45                     0                       # What write queue length does an incoming req see
system.mem_ctrls1.wrQLenPdf::46                     0                       # What write queue length does an incoming req see
system.mem_ctrls1.wrQLenPdf::47                     0                       # What write queue length does an incoming req see
system.mem_ctrls1.wrQLenPdf::48                     0                       # What write queue length does an incoming req see
system.mem_ctrls1.wrQLenPdf::49                     0                       # What write queue length does an incoming req see
system.mem_ctrls1.wrQLenPdf::50                     0                       # What write queue length does an incoming req see
system.mem_ctrls1.wrQLenPdf::51                     0                       # What write queue length does an incoming req see
system.mem_ctrls1.wrQLenPdf::52                     0                       # What write queue length does an incoming req see
system.mem_ctrls1.wrQLenPdf::53                     0                       # What write queue length does an incoming req see
system.mem_ctrls1.wrQLenPdf::54                     0                       # What write queue length does an incoming req see
system.mem_ctrls1.wrQLenPdf::55                     0                       # What write queue length does an incoming req see
system.mem_ctrls1.wrQLenPdf::56                     0                       # What write queue length does an incoming req see
system.mem_ctrls1.wrQLenPdf::57                     0                       # What write queue length does an incoming req see
system.mem_ctrls1.wrQLenPdf::58                     0                       # What write queue length does an incoming req see
system.mem_ctrls1.wrQLenPdf::59                     0                       # What write queue length does an incoming req see
system.mem_ctrls1.wrQLenPdf::60                     0                       # What write queue length does an incoming req see
system.mem_ctrls1.wrQLenPdf::61                     0                       # What write queue length does an incoming req see
system.mem_ctrls1.wrQLenPdf::62                     0                       # What write queue length does an incoming req see
system.mem_ctrls1.wrQLenPdf::63                     0                       # What write queue length does an incoming req see
system.mem_ctrls1.bytesPerActivate::samples        20336                       # Bytes accessed per row activation
system.mem_ctrls1.bytesPerActivate::mean   151.206924                       # Bytes accessed per row activation
system.mem_ctrls1.bytesPerActivate::gmean    97.628644                       # Bytes accessed per row activation
system.mem_ctrls1.bytesPerActivate::stdev   214.546787                       # Bytes accessed per row activation
system.mem_ctrls1.bytesPerActivate::0-127        13639     67.07%     67.07% # Bytes accessed per row activation
system.mem_ctrls1.bytesPerActivate::128-255         4207     20.69%     87.76% # Bytes accessed per row activation
system.mem_ctrls1.bytesPerActivate::256-383          220      1.08%     88.84% # Bytes accessed per row activation
system.mem_ctrls1.bytesPerActivate::384-511          501      2.46%     91.30% # Bytes accessed per row activation
system.mem_ctrls1.bytesPerActivate::512-639          637      3.13%     94.43% # Bytes accessed per row activation
system.mem_ctrls1.bytesPerActivate::640-767          279      1.37%     95.81% # Bytes accessed per row activation
system.mem_ctrls1.bytesPerActivate::768-895           57      0.28%     96.09% # Bytes accessed per row activation
system.mem_ctrls1.bytesPerActivate::896-1023           52      0.26%     96.34% # Bytes accessed per row activation
system.mem_ctrls1.bytesPerActivate::1024-1151          744      3.66%    100.00% # Bytes accessed per row activation
system.mem_ctrls1.bytesPerActivate::total        20336                       # Bytes accessed per row activation
system.mem_ctrls1.totQLat                  1226126727                       # Total ticks spent queuing
system.mem_ctrls1.totMemAccLat             2126989227                       # Total ticks spent from burst creation until serviced by the DRAM
system.mem_ctrls1.totBusLat                 240230000                       # Total ticks spent in databus transfers
system.mem_ctrls1.avgQLat                    25519.85                       # Average queueing delay per DRAM burst
system.mem_ctrls1.avgBusLat                   5000.00                       # Average bus latency per DRAM burst
system.mem_ctrls1.avgMemAccLat               44269.85                       # Average memory access latency per DRAM burst
system.mem_ctrls1.avgRdBW                       86.90                       # Average DRAM read bandwidth in MiByte/s
system.mem_ctrls1.avgWrBW                        0.00                       # Average achieved write bandwidth in MiByte/s
system.mem_ctrls1.avgRdBWSys                    86.90                       # Average system read bandwidth in MiByte/s
system.mem_ctrls1.avgWrBWSys                     0.00                       # Average system write bandwidth in MiByte/s
system.mem_ctrls1.peakBW                     12800.00                       # Theoretical peak bandwidth in MiByte/s
system.mem_ctrls1.busUtil                        0.68                       # Data bus utilization in percentage
system.mem_ctrls1.busUtilRead                    0.68                       # Data bus utilization in percentage for reads
system.mem_ctrls1.busUtilWrite                   0.00                       # Data bus utilization in percentage for writes
system.mem_ctrls1.avgRdQLen                      1.14                       # Average read queue length when enqueuing
system.mem_ctrls1.avgWrQLen                      0.00                       # Average write queue length when enqueuing
system.mem_ctrls1.readRowHits                   27710                       # Number of row buffer hits during reads
system.mem_ctrls1.writeRowHits                      0                       # Number of row buffer hits during writes
system.mem_ctrls1.readRowHitRate                57.67                       # Row buffer hit rate for reads
system.mem_ctrls1.writeRowHitRate                 nan                       # Row buffer hit rate for writes
system.mem_ctrls1.avgGap                    456346.02                       # Average gap between requests
system.mem_ctrls1.pageHitRate                   57.67                       # Row buffer hit rate, read and write combined
system.mem_ctrls1_0.actEnergy                78547140                       # Energy for activate commands per rank (pJ)
system.mem_ctrls1_0.preEnergy                41748795                       # Energy for precharge commands per rank (pJ)
system.mem_ctrls1_0.readEnergy              180506340                       # Energy for read commands per rank (pJ)
system.mem_ctrls1_0.writeEnergy                     0                       # Energy for write commands per rank (pJ)
system.mem_ctrls1_0.refreshEnergy        313466400.000000                       # Energy for refresh commands per rank (pJ)
system.mem_ctrls1_0.actBackEnergy           400765290                       # Energy for active background per rank (pJ)
system.mem_ctrls1_0.preBackEnergy            14115360                       # Energy for precharge background per rank (pJ)
system.mem_ctrls1_0.actPowerDownEnergy     1313240670                       # Energy for active power-down per rank (pJ)
system.mem_ctrls1_0.prePowerDownEnergy       47984640                       # Energy for precharge power-down per rank (pJ)
system.mem_ctrls1_0.selfRefreshEnergy      7555493280                       # Energy for self refresh per rank (pJ)
system.mem_ctrls1_0.totalEnergy            9945867915                       # Total energy per rank (pJ)
system.mem_ctrls1_0.averagePower           281.070906                       # Core power per rank (mW)
system.mem_ctrls1_0.totalIdleTime         21019286907                       # Total Idle time Per DRAM Rank
system.mem_ctrls1_0.memoryStateTime::IDLE      4609965                       # Time in different power states
system.mem_ctrls1_0.memoryStateTime::REF    132648000                       # Time in different power states
system.mem_ctrls1_0.memoryStateTime::SREF  31465115878                       # Time in different power states
system.mem_ctrls1_0.memoryStateTime::PRE_PDN    124953792                       # Time in different power states
system.mem_ctrls1_0.memoryStateTime::ACT    778336801                       # Time in different power states
system.mem_ctrls1_0.memoryStateTime::ACT_PDN   2879953192                       # Time in different power states
system.mem_ctrls1_1.actEnergy                66651900                       # Energy for activate commands per rank (pJ)
system.mem_ctrls1_1.preEnergy                35426325                       # Energy for precharge commands per rank (pJ)
system.mem_ctrls1_1.readEnergy              162542100                       # Energy for read commands per rank (pJ)
system.mem_ctrls1_1.writeEnergy                     0                       # Energy for write commands per rank (pJ)
system.mem_ctrls1_1.refreshEnergy        286422240.000000                       # Energy for refresh commands per rank (pJ)
system.mem_ctrls1_1.actBackEnergy           352788960                       # Energy for active background per rank (pJ)
system.mem_ctrls1_1.preBackEnergy            12207360                       # Energy for precharge background per rank (pJ)
system.mem_ctrls1_1.actPowerDownEnergy     1187365290                       # Energy for active power-down per rank (pJ)
system.mem_ctrls1_1.prePowerDownEnergy       56383680                       # Energy for precharge power-down per rank (pJ)
system.mem_ctrls1_1.selfRefreshEnergy      7644594000                       # Energy for self refresh per rank (pJ)
system.mem_ctrls1_1.totalEnergy            9804381855                       # Total energy per rank (pJ)
system.mem_ctrls1_1.averagePower           277.072500                       # Core power per rank (mW)
system.mem_ctrls1_1.totalIdleTime         21133974215                       # Total Idle time Per DRAM Rank
system.mem_ctrls1_1.memoryStateTime::IDLE      5271053                       # Time in different power states
system.mem_ctrls1_1.memoryStateTime::REF    121226000                       # Time in different power states
system.mem_ctrls1_1.memoryStateTime::SREF  31829461628                       # Time in different power states
system.mem_ctrls1_1.memoryStateTime::PRE_PDN    146793028                       # Time in different power states
system.mem_ctrls1_1.memoryStateTime::ACT    679036265                       # Time in different power states
system.mem_ctrls1_1.memoryStateTime::ACT_PDN   2603829654                       # Time in different power states
system.pwrStateResidencyTicks::UNDEFINED  35385617628                       # Cumulative time (in ticks) in various power states
system.cpu0.branchPred.lookups                6689810                       # Number of BP lookups
system.cpu0.branchPred.condPredicted          6689810                       # Number of conditional branches predicted
system.cpu0.branchPred.condIncorrect             2730                       # Number of conditional branches incorrect
system.cpu0.branchPred.BTBLookups             6031151                       # Number of BTB lookups
system.cpu0.branchPred.BTBHits                      0                       # Number of BTB hits
system.cpu0.branchPred.BTBCorrect                   0                       # Number of correct BTB predictions (this stat may not work properly.
system.cpu0.branchPred.BTBHitPct             0.000000                       # BTB Hit Percentage
system.cpu0.branchPred.usedRAS                 610304                       # Number of times the RAS was used to get a target.
system.cpu0.branchPred.RASInCorrect               590                       # Number of incorrect RAS predictions.
system.cpu0.branchPred.indirectLookups        6031151                       # Number of indirect predictor lookups.
system.cpu0.branchPred.indirectHits           4365857                       # Number of indirect target hits.
system.cpu0.branchPred.indirectMisses         1665294                       # Number of indirect misses.
system.cpu0.branchPredindirectMispredicted         1815                       # Number of mispredicted indirect branches.
system.cpu_voltage_domain.voltage                   1                       # Voltage in Volts
system.cpu_clk_domain.clock                       333                       # Clock period in ticks
system.cpu0.dtb.walker.pwrStateResidencyTicks::UNDEFINED  35385617628                       # Cumulative time (in ticks) in various power states
system.cpu0.apic_clk_domain.clock                5328                       # Clock period in ticks
system.cpu0.interrupts.pwrStateResidencyTicks::UNDEFINED  35385617628                       # Cumulative time (in ticks) in various power states
system.cpu0.itb.walker.pwrStateResidencyTicks::UNDEFINED  35385617628                       # Cumulative time (in ticks) in various power states
system.cpu0.workload.num_syscalls                  16                       # Number of system calls
system.cpu0.pwrStateResidencyTicks::ON    35385617628                       # Cumulative time (in ticks) in various power states
system.cpu0.numCycles                       106263117                       # number of cpu cycles simulated
system.cpu0.numWorkItemsStarted                     0                       # number of work items this cpu started
system.cpu0.numWorkItemsCompleted                   0                       # number of work items this cpu completed
system.cpu0.fetch.icacheStallCycles          34122188                       # Number of cycles fetch is stalled on an Icache miss
system.cpu0.fetch.Insts                      99958698                       # Number of instructions fetch has processed
system.cpu0.fetch.Branches                    6689810                       # Number of branches that fetch encountered
system.cpu0.fetch.predictedBranches           4976161                       # Number of branches that fetch has predicted taken
system.cpu0.fetch.Cycles                     71966476                       # Number of cycles fetch has run and was not squashing or blocked
system.cpu0.fetch.SquashCycles                   7438                       # Number of cycles fetch has spent squashing
system.cpu0.fetch.MiscStallCycles                 187                       # Number of cycles fetch has spent waiting on interrupts, or bad addresses, or out of MSHRs
system.cpu0.fetch.PendingTrapStallCycles         1380                       # Number of stall cycles due to pending traps
system.cpu0.fetch.PendingQuiesceStallCycles            7                       # Number of stall cycles due to pending quiesce instructions
system.cpu0.fetch.CacheLines                 11354667                       # Number of cache lines fetched
system.cpu0.fetch.IcacheSquashes                 1984                       # Number of outstanding Icache misses that were squashed
system.cpu0.fetch.rateDist::samples         106093957                       # Number of instructions fetched each cycle (Total)
system.cpu0.fetch.rateDist::mean             1.393283                       # Number of instructions fetched each cycle (Total)
system.cpu0.fetch.rateDist::stdev            2.813717                       # Number of instructions fetched each cycle (Total)
system.cpu0.fetch.rateDist::underflows              0      0.00%      0.00% # Number of instructions fetched each cycle (Total)
system.cpu0.fetch.rateDist::0                81552447     76.87%     76.87% # Number of instructions fetched each cycle (Total)
system.cpu0.fetch.rateDist::1                 1795023      1.69%     78.56% # Number of instructions fetched each cycle (Total)
system.cpu0.fetch.rateDist::2                 1932203      1.82%     80.38% # Number of instructions fetched each cycle (Total)
system.cpu0.fetch.rateDist::3                 1973733      1.86%     82.24% # Number of instructions fetched each cycle (Total)
system.cpu0.fetch.rateDist::4                 1481430      1.40%     83.64% # Number of instructions fetched each cycle (Total)
system.cpu0.fetch.rateDist::5                 1645524      1.55%     85.19% # Number of instructions fetched each cycle (Total)
system.cpu0.fetch.rateDist::6                 1229650      1.16%     86.35% # Number of instructions fetched each cycle (Total)
system.cpu0.fetch.rateDist::7                 1164576      1.10%     87.45% # Number of instructions fetched each cycle (Total)
system.cpu0.fetch.rateDist::8                13319371     12.55%    100.00% # Number of instructions fetched each cycle (Total)
system.cpu0.fetch.rateDist::overflows               0      0.00%    100.00% # Number of instructions fetched each cycle (Total)
system.cpu0.fetch.rateDist::min_value               0                       # Number of instructions fetched each cycle (Total)
system.cpu0.fetch.rateDist::max_value               8                       # Number of instructions fetched each cycle (Total)
system.cpu0.fetch.rateDist::total           106093957                       # Number of instructions fetched each cycle (Total)
system.cpu0.fetch.branchRate                 0.062955                       # Number of branch fetches per cycle
system.cpu0.fetch.rate                       0.940672                       # Number of inst fetches per cycle
system.cpu0.decode.IdleCycles                23458812                       # Number of cycles decode is idle
system.cpu0.decode.BlockedCycles             60173461                       # Number of cycles decode is blocked
system.cpu0.decode.RunCycles                 18231080                       # Number of cycles decode is running
system.cpu0.decode.UnblockCycles              4226885                       # Number of cycles decode is unblocking
system.cpu0.decode.SquashCycles                  3719                       # Number of cycles decode is squashing
system.cpu0.decode.DecodedInsts             147800769                       # Number of instructions handled by decode
system.cpu0.rename.SquashCycles                  3719                       # Number of cycles rename is squashing
system.cpu0.rename.IdleCycles                25737180                       # Number of cycles rename is idle
system.cpu0.rename.BlockCycles               27351437                       # Number of cycles rename is blocking
system.cpu0.rename.serializeStallCycles           963                       # count of cycles rename stalled for serializing inst
system.cpu0.rename.RunCycles                 20020724                       # Number of cycles rename is running
system.cpu0.rename.UnblockCycles             32979934                       # Number of cycles rename is unblocking
system.cpu0.rename.RenamedInsts             147790542                       # Number of instructions processed by rename
system.cpu0.rename.ROBFullEvents                  388                       # Number of times rename has blocked due to ROB full
system.cpu0.rename.IQFullEvents               5910221                       # Number of times rename has blocked due to IQ full
system.cpu0.rename.LQFullEvents              24923671                       # Number of times rename has blocked due to LQ full
system.cpu0.rename.SQFullEvents                713034                       # Number of times rename has blocked due to SQ full
system.cpu0.rename.RenamedOperands          163484342                       # Number of destination operands rename has renamed
system.cpu0.rename.RenameLookups            348153267                       # Number of register rename lookups that rename has made
system.cpu0.rename.int_rename_lookups       163603038                       # Number of integer rename lookups
system.cpu0.rename.fp_rename_lookups        104435114                       # Number of floating rename lookups
system.cpu0.rename.CommittedMaps            163382911                       # Number of HB maps that are committed
system.cpu0.rename.UndoneMaps                  101360                       # Number of HB maps that are undone due to squashing
system.cpu0.rename.serializingInsts                20                       # count of serializing insts renamed
system.cpu0.rename.tempSerializingInsts            18                       # count of temporary serializing insts renamed
system.cpu0.rename.skidInsts                 29279735                       # count of insts added to the skid buffer
system.cpu0.memDep0.insertedLoads            29029210                       # Number of loads inserted to the mem dependence unit.
system.cpu0.memDep0.insertedStores            8020229                       # Number of stores inserted to the mem dependence unit.
system.cpu0.memDep0.conflictingLoads          6734851                       # Number of conflicting loads.
system.cpu0.memDep0.conflictingStores         1615873                       # Number of conflicting stores.
system.cpu0.iq.iqInstsAdded                 147774691                       # Number of instructions added to the IQ (excludes non-spec)
system.cpu0.iq.iqNonSpecInstsAdded                494                       # Number of non-speculative instructions added to the IQ
system.cpu0.iq.iqInstsIssued                149135481                       # Number of instructions issued
system.cpu0.iq.iqSquashedInstsIssued              134                       # Number of squashed instructions issued
system.cpu0.iq.iqSquashedInstsExamined          79739                       # Number of squashed instructions iterated over during squash; mainly for profiling
system.cpu0.iq.iqSquashedOperandsExamined        86799                       # Number of squashed operands that are examined and possibly removed from graph
system.cpu0.iq.iqSquashedNonSpecRemoved           442                       # Number of squashed non-spec instructions that were removed
system.cpu0.iq.issued_per_cycle::samples    106093957                       # Number of insts issued each cycle
system.cpu0.iq.issued_per_cycle::mean        1.405693                       # Number of insts issued each cycle
system.cpu0.iq.issued_per_cycle::stdev       1.791458                       # Number of insts issued each cycle
system.cpu0.iq.issued_per_cycle::underflows            0      0.00%      0.00% # Number of insts issued each cycle
system.cpu0.iq.issued_per_cycle::0           50590544     47.68%     47.68% # Number of insts issued each cycle
system.cpu0.iq.issued_per_cycle::1           15548601     14.66%     62.34% # Number of insts issued each cycle
[...]
system.l3.demand_mshr_miss_latency::cpu2.data   1950236778                       # number of demand (read+write) MSHR miss cycles
system.l3.demand_mshr_miss_latency::cpu3.inst     93052902                       # number of demand (read+write) MSHR miss cycles
system.l3.demand_mshr_miss_latency::cpu3.data   2075404082                       # number of demand (read+write) MSHR miss cycles
system.l3.demand_mshr_miss_latency::total   8442979656                       # number of demand (read+write) MSHR miss cycles
system.l3.overall_mshr_miss_latency::cpu0.inst     91021919                       # number of overall MSHR miss cycles
system.l3.overall_mshr_miss_latency::cpu0.data   2101203294                       # number of overall MSHR miss cycles
system.l3.overall_mshr_miss_latency::cpu1.inst     96288192                       # number of overall MSHR miss cycles
system.l3.overall_mshr_miss_latency::cpu1.data   1945051290                       # number of overall MSHR miss cycles
system.l3.overall_mshr_miss_latency::cpu2.inst     90721199                       # number of overall MSHR miss cycles
system.l3.overall_mshr_miss_latency::cpu2.data   1950236778                       # number of overall MSHR miss cycles
system.l3.overall_mshr_miss_latency::cpu3.inst     93052902                       # number of overall MSHR miss cycles
system.l3.overall_mshr_miss_latency::cpu3.data   2075404082                       # number of overall MSHR miss cycles
system.l3.overall_mshr_miss_latency::total   8442979656                       # number of overall MSHR miss cycles
system.l3.ReadExReq_mshr_miss_rate::cpu0.data     0.999737                       # mshr miss rate for ReadExReq accesses
system.l3.ReadExReq_mshr_miss_rate::cpu1.data     0.999780                       # mshr miss rate for ReadExReq accesses
system.l3.ReadExReq_mshr_miss_rate::cpu2.data     0.999780                       # mshr miss rate for ReadExReq accesses
system.l3.ReadExReq_mshr_miss_rate::cpu3.data     0.999868                       # mshr miss rate for ReadExReq accesses
system.l3.ReadExReq_mshr_miss_rate::total     0.999791                       # mshr miss rate for ReadExReq accesses
system.l3.ReadSharedReq_mshr_miss_rate::cpu0.inst     0.995357                       # mshr miss rate for ReadSharedReq accesses
system.l3.ReadSharedReq_mshr_miss_rate::cpu0.data     0.000747                       # mshr miss rate for ReadSharedReq accesses
system.l3.ReadSharedReq_mshr_miss_rate::cpu1.inst     0.995375                       # mshr miss rate for ReadSharedReq accesses
system.l3.ReadSharedReq_mshr_miss_rate::cpu1.data     0.000746                       # mshr miss rate for ReadSharedReq accesses
system.l3.ReadSharedReq_mshr_miss_rate::cpu2.inst     0.995340                       # mshr miss rate for ReadSharedReq accesses
system.l3.ReadSharedReq_mshr_miss_rate::cpu2.data     0.000728                       # mshr miss rate for ReadSharedReq accesses
system.l3.ReadSharedReq_mshr_miss_rate::cpu3.inst     0.995366                       # mshr miss rate for ReadSharedReq accesses
system.l3.ReadSharedReq_mshr_miss_rate::cpu3.data     0.000732                       # mshr miss rate for ReadSharedReq accesses
system.l3.ReadSharedReq_mshr_miss_rate::total     0.004847                       # mshr miss rate for ReadSharedReq accesses
system.l3.demand_mshr_miss_rate::cpu0.inst     0.995357                       # mshr miss rate for demand accesses
system.l3.demand_mshr_miss_rate::cpu0.data     0.081326                       # mshr miss rate for demand accesses
system.l3.demand_mshr_miss_rate::cpu1.inst     0.995375                       # mshr miss rate for demand accesses
system.l3.demand_mshr_miss_rate::cpu1.data     0.081238                       # mshr miss rate for demand accesses
system.l3.demand_mshr_miss_rate::cpu2.inst     0.995340                       # mshr miss rate for demand accesses
system.l3.demand_mshr_miss_rate::cpu2.data     0.081269                       # mshr miss rate for demand accesses
system.l3.demand_mshr_miss_rate::cpu3.inst     0.995366                       # mshr miss rate for demand accesses
system.l3.demand_mshr_miss_rate::cpu3.data     0.081289                       # mshr miss rate for demand accesses
system.l3.demand_mshr_miss_rate::total       0.084753                       # mshr miss rate for demand accesses
system.l3.overall_mshr_miss_rate::cpu0.inst     0.995357                       # mshr miss rate for overall accesses
system.l3.overall_mshr_miss_rate::cpu0.data     0.081326                       # mshr miss rate for overall accesses
system.l3.overall_mshr_miss_rate::cpu1.inst     0.995375                       # mshr miss rate for overall accesses
system.l3.overall_mshr_miss_rate::cpu1.data     0.081238                       # mshr miss rate for overall accesses
system.l3.overall_mshr_miss_rate::cpu2.inst     0.995340                       # mshr miss rate for overall accesses
system.l3.overall_mshr_miss_rate::cpu2.data     0.081269                       # mshr miss rate for overall accesses
system.l3.overall_mshr_miss_rate::cpu3.inst     0.995366                       # mshr miss rate for overall accesses
system.l3.overall_mshr_miss_rate::cpu3.data     0.081289                       # mshr miss rate for overall accesses
system.l3.overall_mshr_miss_rate::total      0.084753                       # mshr miss rate for overall accesses
system.l3.ReadExReq_avg_mshr_miss_latency::cpu0.data 91416.343097                       # average ReadExReq mshr miss latency
system.l3.ReadExReq_avg_mshr_miss_latency::cpu1.data 84579.490667                       # average ReadExReq mshr miss latency
system.l3.ReadExReq_avg_mshr_miss_latency::cpu2.data 84810.478089                       # average ReadExReq mshr miss latency
system.l3.ReadExReq_avg_mshr_miss_latency::cpu3.data 90308.335075                       # average ReadExReq mshr miss latency
system.l3.ReadExReq_avg_mshr_miss_latency::total 87778.674154                       # average ReadExReq mshr miss latency
system.l3.ReadSharedReq_avg_mshr_miss_latency::cpu0.inst 84908.506530                       # average ReadSharedReq mshr miss latency
system.l3.ReadSharedReq_avg_mshr_miss_latency::cpu0.data 100362.520619                       # average ReadSharedReq mshr miss latency
system.l3.ReadSharedReq_avg_mshr_miss_latency::cpu1.inst 89487.167286                       # average ReadSharedReq mshr miss latency
system.l3.ReadSharedReq_avg_mshr_miss_latency::cpu1.data 99282.819588                       # average ReadSharedReq mshr miss latency
system.l3.ReadSharedReq_avg_mshr_miss_latency::cpu2.inst 84944.942884                       # average ReadSharedReq mshr miss latency
system.l3.ReadSharedReq_avg_mshr_miss_latency::cpu2.data 99274.867725                       # average ReadSharedReq mshr miss latency
system.l3.ReadSharedReq_avg_mshr_miss_latency::cpu3.inst 86641.435754                       # average ReadSharedReq mshr miss latency
system.l3.ReadSharedReq_avg_mshr_miss_latency::cpu3.data 99963.073684                       # average ReadSharedReq mshr miss latency
system.l3.ReadSharedReq_avg_mshr_miss_latency::total 88505.307890                       # average ReadSharedReq mshr miss latency
system.l3.demand_avg_mshr_miss_latency::cpu0.inst 84908.506530                       # average overall mshr miss latency
system.l3.demand_avg_mshr_miss_latency::cpu0.data 91491.913873                       # average overall mshr miss latency
system.l3.demand_avg_mshr_miss_latency::cpu1.inst 89487.167286                       # average overall mshr miss latency
system.l3.demand_avg_mshr_miss_latency::cpu1.data 84703.709881                       # average overall mshr miss latency
system.l3.demand_avg_mshr_miss_latency::cpu2.inst 84944.942884                       # average overall mshr miss latency
system.l3.demand_avg_mshr_miss_latency::cpu2.data 84929.529156                       # average overall mshr miss latency
system.l3.demand_avg_mshr_miss_latency::cpu3.inst 86641.435754                       # average overall mshr miss latency
system.l3.demand_avg_mshr_miss_latency::cpu3.data 90388.227081                       # average overall mshr miss latency
system.l3.demand_avg_mshr_miss_latency::total 87816.894168                       # average overall mshr miss latency
system.l3.overall_avg_mshr_miss_latency::cpu0.inst 84908.506530                       # average overall mshr miss latency
system.l3.overall_avg_mshr_miss_latency::cpu0.data 91491.913873                       # average overall mshr miss latency
system.l3.overall_avg_mshr_miss_latency::cpu1.inst 89487.167286                       # average overall mshr miss latency
system.l3.overall_avg_mshr_miss_latency::cpu1.data 84703.709881                       # average overall mshr miss latency
system.l3.overall_avg_mshr_miss_latency::cpu2.inst 84944.942884                       # average overall mshr miss latency
system.l3.overall_avg_mshr_miss_latency::cpu2.data 84929.529156                       # average overall mshr miss latency
system.l3.overall_avg_mshr_miss_latency::cpu3.inst 86641.435754                       # average overall mshr miss latency
system.l3.overall_avg_mshr_miss_latency::cpu3.data 90388.227081                       # average overall mshr miss latency
system.l3.overall_avg_mshr_miss_latency::total 87816.894168                       # average overall mshr miss latency
system.membus.snoop_filter.tot_requests         96143                       # Total number of requests made to the snoop filter.
system.membus.snoop_filter.hit_single_requests            0                       # Number of requests hitting in the snoop filter with a single holder of the requested data.
system.membus.snoop_filter.hit_multi_requests            0                       # Number of requests hitting in the snoop filter with multiple (>1) holders of the requested data.
system.membus.snoop_filter.tot_snoops               0                       # Total number of snoops made to the snoop filter.
system.membus.snoop_filter.hit_single_snoops            0                       # Number of snoops hitting in the snoop filter with a single holder of the requested data.
system.membus.snoop_filter.hit_multi_snoops            0                       # Number of snoops hitting in the snoop filter with multiple (>1) holders of the requested data.
system.membus.pwrStateResidencyTicks::UNDEFINED  35385617628                       # Cumulative time (in ticks) in various power states
system.membus.trans_dist::ReadResp               5057                       # Transaction distribution
system.membus.trans_dist::ReadExReq             91086                       # Transaction distribution
system.membus.trans_dist::ReadExResp            91086                       # Transaction distribution
system.membus.trans_dist::ReadSharedReq          5057                       # Transaction distribution
system.membus.pkt_count_system.l3.mem_side::system.mem_ctrls0.port        96194                       # Packet count per connected master and slave (bytes)
system.membus.pkt_count_system.l3.mem_side::system.mem_ctrls1.port        96092                       # Packet count per connected master and slave (bytes)
system.membus.pkt_count_system.l3.mem_side::total       192286                       # Packet count per connected master and slave (bytes)
system.membus.pkt_count::total                 192286                       # Packet count per connected master and slave (bytes)
system.membus.pkt_size_system.l3.mem_side::system.mem_ctrls0.port      3078208                       # Cumulative packet size per connected master and slave (bytes)
system.membus.pkt_size_system.l3.mem_side::system.mem_ctrls1.port      3074944                       # Cumulative packet size per connected master and slave (bytes)
system.membus.pkt_size_system.l3.mem_side::total      6153152                       # Cumulative packet size per connected master and slave (bytes)
system.membus.pkt_size::total                 6153152                       # Cumulative packet size per connected master and slave (bytes)
system.membus.snoops                                0                       # Total snoops (count)
system.membus.snoopTraffic                          0                       # Total snoop traffic (bytes)
system.membus.snoop_fanout::samples             96143                       # Request fanout histogram
system.membus.snoop_fanout::mean                    0                       # Request fanout histogram
system.membus.snoop_fanout::stdev                   0                       # Request fanout histogram
system.membus.snoop_fanout::underflows              0      0.00%      0.00% # Request fanout histogram
system.membus.snoop_fanout::0                   96143    100.00%    100.00% # Request fanout histogram
system.membus.snoop_fanout::1                       0      0.00%    100.00% # Request fanout histogram
system.membus.snoop_fanout::overflows               0      0.00%    100.00% # Request fanout histogram
system.membus.snoop_fanout::min_value               0                       # Request fanout histogram
system.membus.snoop_fanout::max_value               0                       # Request fanout histogram
system.membus.snoop_fanout::total               96143                       # Request fanout histogram
system.membus.reqLayer8.occupancy            73212029                       # Layer occupancy (ticks)
system.membus.reqLayer8.utilization               0.2                       # Layer utilization (%)
system.membus.reqLayer9.occupancy            73080795                       # Layer occupancy (ticks)
system.membus.reqLayer9.utilization               0.2                       # Layer utilization (%)
system.membus.respLayer1.occupancy          517104345                       # Layer occupancy (ticks)
system.membus.respLayer1.utilization              1.5                       # Layer utilization (%)
system.tol3bus.snoop_filter.tot_requests      2250378                       # Total number of requests made to the snoop filter.
system.tol3bus.snoop_filter.hit_single_requests      1115991                       # Number of requests hitting in the snoop filter with a single holder of the requested data.
system.tol3bus.snoop_filter.hit_multi_requests            0                       # Number of requests hitting in the snoop filter with multiple (>1) holders of the requested data.
system.tol3bus.snoop_filter.tot_snoops              1                       # Total number of snoops made to the snoop filter.
system.tol3bus.snoop_filter.hit_single_snoops            1                       # Number of snoops hitting in the snoop filter with a single holder of the requested data.
system.tol3bus.snoop_filter.hit_multi_snoops            0                       # Number of snoops hitting in the snoop filter with multiple (>1) holders of the requested data.
system.tol3bus.pwrStateResidencyTicks::UNDEFINED  35385617628                       # Cumulative time (in ticks) in various power states
system.tol3bus.trans_dist::ReadResp           1043282                       # Transaction distribution
system.tol3bus.trans_dist::WritebackDirty      1113133                       # Transaction distribution
system.tol3bus.trans_dist::CleanEvict            2859                       # Transaction distribution
system.tol3bus.trans_dist::ReadExReq            91105                       # Transaction distribution
system.tol3bus.trans_dist::ReadExResp           91105                       # Transaction distribution
system.tol3bus.trans_dist::ReadSharedReq      1043282                       # Transaction distribution
system.tol3bus.pkt_count_system.cpu0.l2.mem_side::system.l3.cpu_side       845821                       # Packet count per connected master and slave (bytes)
system.tol3bus.pkt_count_system.cpu1.l2.mem_side::system.l3.cpu_side       846635                       # Packet count per connected master and slave (bytes)
system.tol3bus.pkt_count_system.cpu2.l2.mem_side::system.l3.cpu_side       846284                       # Packet count per connected master and slave (bytes)
system.tol3bus.pkt_count_system.cpu3.l2.mem_side::system.l3.cpu_side       846025                       # Packet count per connected master and slave (bytes)
system.tol3bus.pkt_count::total               3384765                       # Packet count per connected master and slave (bytes)
system.tol3bus.pkt_size_system.cpu0.l2.mem_side::system.l3.cpu_side     35944384                       # Cumulative packet size per connected master and slave (bytes)
system.tol3bus.pkt_size_system.cpu1.l2.mem_side::system.l3.cpu_side     35979072                       # Cumulative packet size per connected master and slave (bytes)
system.tol3bus.pkt_size_system.cpu2.l2.mem_side::system.l3.cpu_side     35964672                       # Cumulative packet size per connected master and slave (bytes)
system.tol3bus.pkt_size_system.cpu3.l2.mem_side::system.l3.cpu_side     35953152                       # Cumulative packet size per connected master and slave (bytes)
system.tol3bus.pkt_size::total              143841280                       # Cumulative packet size per connected master and slave (bytes)
system.tol3bus.snoops                               1                       # Total snoops (count)
system.tol3bus.snoopTraffic                         0                       # Total snoop traffic (bytes)
system.tol3bus.snoop_fanout::samples          1134388                       # Request fanout histogram
system.tol3bus.snoop_fanout::mean            0.000001                       # Request fanout histogram
system.tol3bus.snoop_fanout::stdev           0.000939                       # Request fanout histogram
system.tol3bus.snoop_fanout::underflows             0      0.00%      0.00% # Request fanout histogram
system.tol3bus.snoop_fanout::0                1134387    100.00%    100.00% # Request fanout histogram
system.tol3bus.snoop_fanout::1                      1      0.00%    100.00% # Request fanout histogram
system.tol3bus.snoop_fanout::2                      0      0.00%    100.00% # Request fanout histogram
system.tol3bus.snoop_fanout::3                      0      0.00%    100.00% # Request fanout histogram
system.tol3bus.snoop_fanout::4                      0      0.00%    100.00% # Request fanout histogram
system.tol3bus.snoop_fanout::overflows              0      0.00%    100.00% # Request fanout histogram
system.tol3bus.snoop_fanout::min_value              0                       # Request fanout histogram
system.tol3bus.snoop_fanout::max_value              1                       # Request fanout histogram
system.tol3bus.snoop_fanout::total            1134388                       # Request fanout histogram
system.tol3bus.reqLayer0.occupancy         1120049163                       # Layer occupancy (ticks)
system.tol3bus.reqLayer0.utilization              3.2                       # Layer utilization (%)
system.tol3bus.respLayer0.occupancy         188909218                       # Layer occupancy (ticks)
system.tol3bus.respLayer0.utilization             0.5                       # Layer utilization (%)
system.tol3bus.respLayer1.occupancy         189073438                       # Layer occupancy (ticks)
system.tol3bus.respLayer1.utilization             0.5                       # Layer utilization (%)
system.tol3bus.respLayer2.occupancy         189000496                       # Layer occupancy (ticks)
system.tol3bus.respLayer2.utilization             0.5                       # Layer utilization (%)
system.tol3bus.respLayer3.occupancy         188928610                       # Layer occupancy (ticks)
system.tol3bus.respLayer3.utilization             0.5                       # Layer utilization (%)

---------- End Simulation Statistics   ----------
