
---------- Begin Simulation Statistics ----------
sim_seconds                                  0.026628                       # Number of seconds simulated
sim_ticks                                 26628037974                       # Number of ticks simulated
final_tick                                26628037974                       # Number of ticks from beginning of simulation (restored from checkpoints and never reset)
sim_freq                                 1000000000000                       # Frequency of simulated ticks
host_inst_rate                                 166753                       # Simulator instruction rate (inst/s)
host_op_rate                                   246556                       # Simulator op (including micro ops) rate (op/s)
host_tick_rate                               11114278                       # Simulator tick rate (ticks/s)
host_mem_usage                                8678200                       # Number of bytes of host memory used
host_seconds                                  2395.84                       # Real time elapsed on the host
sim_insts                                   399514772                       # Number of instructions simulated
sim_ops                                     590709133                       # Number of ops (including micro ops) simulated
system.voltage_domain.voltage                       1                       # Voltage in Volts
system.clk_domain.clock                          1000                       # Clock period in ticks
system.mem_ctrls0.pwrStateResidencyTicks::UNDEFINED  26628037974                       # Cumulative time (in ticks) in various power states
system.mem_ctrls0.bytes_read::cpu0.inst         33920                       # Number of bytes read from this memory
system.mem_ctrls0.bytes_read::cpu0.data        734464                       # Number of bytes read from this memory
system.mem_ctrls0.bytes_read::cpu1.inst         34688                       # Number of bytes read from this memory
system.mem_ctrls0.bytes_read::cpu1.data        735232                       # Number of bytes read from this memory
system.mem_ctrls0.bytes_read::cpu2.inst         34432                       # Number of bytes read from this memory
system.mem_ctrls0.bytes_read::cpu2.data        735424                       # Number of bytes read from this memory
system.mem_ctrls0.bytes_read::cpu3.inst         34624                       # Number of bytes read from this memory
system.mem_ctrls0.bytes_read::cpu3.data        735232                       # Number of bytes read from this memory
system.mem_ctrls0.bytes_read::total           3078016                       # Number of bytes read from this memory
system.mem_ctrls0.bytes_inst_read::cpu0.inst        33920                       # Number of instructions bytes read from this memory
system.mem_ctrls0.bytes_inst_read::cpu1.inst        34688                       # Number of instructions bytes read from this memory
system.mem_ctrls0.bytes_inst_read::cpu2.inst        34432                       # Number of instructions bytes read from this memory
system.mem_ctrls0.bytes_inst_read::cpu3.inst        34624                       # Number of instructions bytes read from this memory
system.mem_ctrls0.bytes_inst_read::total       137664                       # Number of instructions bytes read from this memory
system.mem_ctrls0.num_reads::cpu0.inst            530                       # Number of read requests responded to by this memory
system.mem_ctrls0.num_reads::cpu0.data          11476                       # Number of read requests responded to by this memory
system.mem_ctrls0.num_reads::cpu1.inst            542                       # Number of read requests responded to by this memory
system.mem_ctrls0.num_reads::cpu1.data          11488                       # Number of read requests responded to by this memory
system.mem_ctrls0.num_reads::cpu2.inst            538                       # Number of read requests responded to by this memory
system.mem_ctrls0.num_reads::cpu2.data          11491                       # Number of read requests responded to by this memory
system.mem_ctrls0.num_reads::cpu3.inst            541                       # Number of read requests responded to by this memory
system.mem_ctrls0.num_reads::cpu3.data          11488                       # Number of read requests responded to by this memory
system.mem_ctrls0.num_reads::total              48094                       # Number of read requests responded to by this memory
system.mem_ctrls0.bw_read::cpu0.inst          1273845                       # Total read bandwidth from this memory (bytes/s)
system.mem_ctrls0.bw_read::cpu0.data         27582355                       # Total read bandwidth from this memory (bytes/s)
system.mem_ctrls0.bw_read::cpu1.inst          1302687                       # Total read bandwidth from this memory (bytes/s)
system.mem_ctrls0.bw_read::cpu1.data         27611197                       # Total read bandwidth from this memory (bytes/s)
system.mem_ctrls0.bw_read::cpu2.inst          1293073                       # Total read bandwidth from this memory (bytes/s)
system.mem_ctrls0.bw_read::cpu2.data         27618407                       # Total read bandwidth from this memory (bytes/s)
system.mem_ctrls0.bw_read::cpu3.inst          1300284                       # Total read bandwidth from this memory (bytes/s)
system.mem_ctrls0.bw_read::cpu3.data         27611197                       # Total read bandwidth from this memory (bytes/s)
system.mem_ctrls0.bw_read::total            115593045                       # Total read bandwidth from this memory (bytes/s)
system.mem_ctrls0.bw_inst_read::cpu0.inst      1273845                       # Instruction read bandwidth from this memory (bytes/s)
system.mem_ctrls0.bw_inst_read::cpu1.inst      1302687                       # Instruction read bandwidth from this memory (bytes/s)
system.mem_ctrls0.bw_inst_read::cpu2.inst      1293073                       # Instruction read bandwidth from this memory (bytes/s)
system.mem_ctrls0.bw_inst_read::cpu3.inst      1300284                       # Instruction read bandwidth from this memory (bytes/s)
system.mem_ctrls0.bw_inst_read::total         5169889                       # Instruction read bandwidth from this memory (bytes/s)
system.mem_ctrls0.bw_total::cpu0.inst         1273845                       # Total bandwidth to/from this memory (bytes/s)
system.mem_ctrls0.bw_total::cpu0.data        27582355                       # Total bandwidth to/from this memory (bytes/s)
system.mem_ctrls0.bw_total::cpu1.inst         1302687                       # Total bandwidth to/from this memory (bytes/s)
system.mem_ctrls0.bw_total::cpu1.data        27611197                       # Total bandwidth to/from this memory (bytes/s)
system.mem_ctrls0.bw_total::cpu2.inst         1293073                       # Total bandwidth to/from this memory (bytes/s)
system.mem_ctrls0.bw_total::cpu2.data        27618407                       # Total bandwidth to/from this memory (bytes/s)
system.mem_ctrls0.bw_total::cpu3.inst         1300284                       # Total bandwidth to/from this memory (bytes/s)
system.mem_ctrls0.bw_total::cpu3.data        27611197                       # Total bandwidth to/from this memory (bytes/s)
system.mem_ctrls0.bw_total::total           115593045                       # Total bandwidth to/from this memory (bytes/s)
system.mem_ctrls0.readReqs                      48094                       # Number of read requests accepted
system.mem_ctrls0.writeReqs                         0                       # Number of write requests accepted
system.mem_ctrls0.readBursts                    48094                       # Number of DRAM read bursts, including those serviced by the write queue
system.mem_ctrls0.writeBursts                       0                       # Number of DRAM write bursts, including those merged in the write queue
system.mem_ctrls0.bytesReadDRAM               3078016                       # Total number of bytes read from DRAM
system.mem_ctrls0.bytesReadWrQ                      0                       # Total number of bytes read from write queue
system.mem_ctrls0.bytesWritten                      0                       # Total number of bytes written to DRAM
system.mem_ctrls0.bytesReadSys                3078016                       # Total read bytes from the system interface side
system.mem_ctrls0.bytesWrittenSys                   0                       # Total written bytes from the system interface side
system.mem_ctrls0.servicedByWrQ                     0                       # Number of DRAM read bursts serviced by the write queue
system.mem_ctrls0.mergedWrBursts                    0                       # Number of DRAM write bursts merged with an existing one
system.mem_ctrls0.neitherReadNorWriteReqs            0                       # Number of requests that are neither read nor write
system.mem_ctrls0.perBankRdBursts::0             2803                       # Per bank write bursts
system.mem_ctrls0.perBankRdBursts::1             3068                       # Per bank write bursts
system.mem_ctrls0.perBankRdBursts::2             3124                       # Per bank write bursts
system.mem_ctrls0.perBankRdBursts::3             3210                       # Per bank write bursts
system.mem_ctrls0.perBankRdBursts::4             3223                       # Per bank write bursts
system.mem_ctrls0.perBankRdBursts::5             3285                       # Per bank write bursts
system.mem_ctrls0.perBankRdBursts::6             3343                       # Per bank write bursts
system.mem_ctrls0.perBankRdBursts::7             3263                       # Per bank write bursts
system.mem_ctrls0.perBankRdBursts::8             3276                       # Per bank write bursts
system.mem_ctrls0.perBankRdBursts::9             2951                       # Per bank write bursts
system.mem_ctrls0.perBankRdBursts::10            2820                       # Per bank write bursts
system.mem_ctrls0.perBankRdBursts::11            2818                       # Per bank write bursts
system.mem_ctrls0.perBankRdBursts::12            2791                       # Per bank write bursts
system.mem_ctrls0.perBankRdBursts::13            2741                       # Per bank write bursts
system.mem_ctrls0.perBankRdBursts::14            2676                       # Per bank write bursts
system.mem_ctrls0.perBankRdBursts::15            2702                       # Per bank write bursts
system.mem_ctrls0.perBankWrBursts::0                0                       # Per bank write bursts
system.mem_ctrls0.perBankWrBursts::1                0                       # Per bank write bursts
system.mem_ctrls0.perBankWrBursts::2                0                       # Per bank write bursts
system.mem_ctrls0.perBankWrBursts::3                0                       # Per bank write bursts
system.mem_ctrls0.perBankWrBursts::4                0                       # Per bank write bursts
system.mem_ctrls0.perBankWrBursts::5                0                       # Per bank write bursts
system.mem_ctrls0.perBankWrBursts::6                0                       # Per bank write bursts
system.mem_ctrls0.perBankWrBursts::7                0                       # Per bank write bursts
system.mem_ctrls0.perBankWrBursts::8                0                       # Per bank write bursts
system.mem_ctrls0.perBankWrBursts::9                0                       # Per bank write bursts
system.mem_ctrls0.perBankWrBursts::10               0                       # Per bank write bursts
system.mem_ctrls0.perBankWrBursts::11               0                       # Per bank write bursts
system.mem_ctrls0.perBankWrBursts::12               0                       # Per bank write bursts
system.mem_ctrls0.perBankWrBursts::13               0                       # Per bank write bursts
system.mem_ctrls0.perBankWrBursts::14               0                       # Per bank write bursts
system.mem_ctrls0.perBankWrBursts::15               0                       # Per bank write bursts
system.mem_ctrls0.numRdRetry                        0                       # Number of times read queue was full causing retry
system.mem_ctrls0.numWrRetry                        0                       # Number of times write queue was full causing retry
system.mem_ctrls0.totGap                  15505340472                       # Total gap between requests
system.mem_ctrls0.readPktSize::0                    0                       # Read request sizes (log2)
system.mem_ctrls0.readPktSize::1                    0                       # Read request sizes (log2)
system.mem_ctrls0.readPktSize::2                    0                       # Read request sizes (log2)
system.mem_ctrls0.readPktSize::3                    0                       # Read request sizes (log2)
system.mem_ctrls0.readPktSize::4                    0                       # Read request sizes (log2)
system.mem_ctrls0.readPktSize::5                    0                       # Read request sizes (log2)
system.mem_ctrls0.readPktSize::6                48094                       # Read request sizes (log2)
system.mem_ctrls0.writePktSize::0                   0                       # Write request sizes (log2)
system.mem_ctrls0.writePktSize::1                   0                       # Write request sizes (log2)
system.mem_ctrls0.writePktSize::2                   0                       # Write request sizes (log2)
system.mem_ctrls0.writePktSize::3                   0                       # Write request sizes (log2)
system.mem_ctrls0.writePktSize::4                   0                       # Write request sizes (log2)
system.mem_ctrls0.writePktSize::5                   0                       # Write request sizes (log2)
system.mem_ctrls0.writePktSize::6                   0                       # Write request sizes (log2)
system.mem_ctrls0.rdQLenPdf::0                  26821                       # What read queue length does an incoming req see
system.mem_ctrls0.rdQLenPdf::1                  14741                       # What read queue length does an incoming req see
system.mem_ctrls0.rdQLenPdf::2                   5568                       # What read queue length does an incoming req see
system.mem_ctrls0.rdQLenPdf::3                    797                       # What read queue length does an incoming req see
system.mem_ctrls0.rdQLenPdf::4                    110                       # What read queue length does an incoming req see
system.mem_ctrls0.rdQLenPdf::5                     42                       # What read queue length does an incoming req see
system.mem_ctrls0.rdQLenPdf::6                     11                       # What read queue length does an incoming req see
system.mem_ctrls0.rdQLenPdf::7                      3                       # What read queue length does an incoming req see
system.mem_ctrls0.rdQLenPdf::8                      1                       # What read queue length does an incoming req see
system.mem_ctrls0.rdQLenPdf::9                      0                       # What read queue length does an incoming req see
system.mem_ctrls0.rdQLenPdf::10                     0                       # What read queue length does an incoming req see
system.mem_ctrls0.rdQLenPdf::11                     0                       # What read queue length does an incoming req see
system.mem_ctrls0.rdQLenPdf::12                     0                       # What read queue length does an incoming req see
system.mem_ctrls0.rdQLenPdf::13                     0                       # What read queue length does an incoming req see
system.mem_ctrls0.rdQLenPdf::14                     0                       # What read queue length does an incoming req see
system.mem_ctrls0.rdQLenPdf::15                     0                       # What read queue length does an incoming req see
system.mem_ctrls0.rdQLenPdf::16                     0                       # What read queue length does an incoming req see
system.mem_ctrls0.rdQLenPdf::17                     0                       # What read queue length does an incoming req see
system.mem_ctrls0.rdQLenPdf::18                     0                       # What read queue length does an incoming req see
system.mem_ctrls0.rdQLenPdf::19                     0                       # What read queue length does an incoming req see
system.mem_ctrls0.rdQLenPdf::20                     0                       # What read queue length does an incoming req see
system.mem_ctrls0.rdQLenPdf::21                     0                       # What read queue length does an incoming req see
system.mem_ctrls0.rdQLenPdf::22                     0                       # What read queue length does an incoming req see
system.mem_ctrls0.rdQLenPdf::23                     0                       # What read queue length does an incoming req see
system.mem_ctrls0.rdQLenPdf::24                     0                       # What read queue length does an incoming req see
system.mem_ctrls0.rdQLenPdf::25                     0                       # What read queue length does an incoming req see
system.mem_ctrls0.rdQLenPdf::26                     0                       # What read queue length does an incoming req see
system.mem_ctrls0.rdQLenPdf::27                     0                       # What read queue length does an incoming req see
system.mem_ctrls0.rdQLenPdf::28                     0                       # What read queue length does an incoming req see
system.mem_ctrls0.rdQLenPdf::29                     0                       # What read queue length does an incoming req see
system.mem_ctrls0.rdQLenPdf::30                     0                       # What read queue length does an incoming req see
system.mem_ctrls0.rdQLenPdf::31                     0                       # What read queue length does an incoming req see
system.mem_ctrls0.wrQLenPdf::0                      0                       # What write queue length does an incoming req see
system.mem_ctrls0.wrQLenPdf::1                      0                       # What write queue length does an incoming req see
system.mem_ctrls0.wrQLenPdf::2                      0                       # What write queue length does an incoming req see
system.mem_ctrls0.wrQLenPdf::3                      0                       # What write queue length does an incoming req see
system.mem_ctrls0.wrQLenPdf::4                      0                       # What write queue length does an incoming req see
system.mem_ctrls0.wrQLenPdf::5                      0                       # What write queue length does an incoming req see
system.mem_ctrls0.wrQLenPdf::6                      0                       # What write queue length does an incoming req see
system.mem_ctrls0.wrQLenPdf::7                      0                       # What write queue length does an incoming req see
system.mem_ctrls0.wrQLenPdf::8                      0                       # What write queue length does an incoming req see
system.mem_ctrls0.wrQLenPdf::9                      0                       # What write queue length does an incoming req see
system.mem_ctrls0.wrQLenPdf::10                     0                       # What write queue length does an incoming req see
system.mem_ctrls0.wrQLenPdf::11                     0                       # What write queue length does an incoming req see
system.mem_ctrls0.wrQLenPdf::12                     0                       # What write queue length does an incoming req see
system.mem_ctrls0.wrQLenPdf::13                     0                       # What write queue length does an incoming req see
system.mem_ctrls0.wrQLenPdf::14                     0                       # What write queue length does an incoming req see
system.mem_ctrls0.wrQLenPdf::15                     0                       # What write queue length does an incoming req see
system.mem_ctrls0.wrQLenPdf::16                     0                       # What write queue length does an incoming req see
system.mem_ctrls0.wrQLenPdf::17                     0                       # What write queue length does an incoming req see
system.mem_ctrls0.wrQLenPdf::18                     0                       # What write queue length does an incoming req see
system.mem_ctrls0.wrQLenPdf::19                     0                       # What write queue length does an incoming req see
system.mem_ctrls0.wrQLenPdf::20                     0                       # What write queue length does an incoming req see
system.mem_ctrls0.wrQLenPdf::21                     0                       # What write queue length does an incoming req see
system.mem_ctrls0.wrQLenPdf::22                     0                       # What write queue length does an incoming req see
system.mem_ctrls0.wrQLenPdf::23                     0                       # What write queue length does an incoming req see
system.mem_ctrls0.wrQLenPdf::24                     0                       # What write queue length does an incoming req see
system.mem_ctrls0.wrQLenPdf::25                     0                       # What write queue length does an incoming req see
system.mem_ctrls0.wrQLenPdf::26                     0                       # What write queue length does an incoming req see
system.mem_ctrls0.wrQLenPdf::27                     0                       # What write queue length does an incoming req see
system.mem_ctrls0.wrQLenPdf::28                     0                       # What write queue length does an incoming req see
system.mem_ctrls0.wrQLenPdf::29                     0                       # What write queue length does an incoming req see
system.mem_ctrls0.wrQLenPdf::30                     0                       # What write queue length does an incoming req see
system.mem_ctrls0.wrQLenPdf::31                     0                       # What write queue length does an incoming req see
system.mem_ctrls0.wrQLenPdf::32                     0                       # What write queue length does an incoming req see
system.mem_ctrls0.wrQLenPdf::33                     0                       # What write queue length does an incoming req see
system.mem_ctrls0.wrQLenPdf::34                     0                       # What write queue length does an incoming req see
system.mem_ctrls0.wrQLenPdf::35                     0                       # What write queue length does an incoming req see
system.mem_ctrls0.wrQLenPdf::36                     0                       # What write queue length does an incoming req see
system.mem_ctrls0.wrQLenPdf::37                     0                       # What write queue length does an incoming req see
system.mem_ctrls0.wrQLenPdf::38                     0                       # What write queue length does an incoming req see
system.mem_ctrls0.wrQLenPdf::39                     0                       # What write queue length does an incoming req see
system.mem_ctrls0.wrQLenPdf::40                     0                       # What write queue length does an incoming req see
system.mem_ctrls0.wrQLenPdf::41                     0                       # What write queue length does an incoming req see
system.mem_ctrls0.wrQLenPdf::42                     0                       # What write queue length does an incoming req see
system.mem_ctrls0.wrQLenPdf::43                     0                       # What write queue length does an incoming req see
system.mem_ctrls0.wrQLenPdf::44                     0                       # What write queue length does an incoming req see
system.mem_ctrls0.wrQLenPdf::45                     0                       # What write queue length does an incoming req see
system.mem_ctrls0.wrQLenPdf::46                     0                       # What write queue length does an incoming req see
system.mem_ctrls0.wrQLenPdf::47                     0                       # What write queue length does an incoming req see
system.mem_ctrls0.wrQLenPdf::48                     0                       # What write queue length does an incoming req see
system.mem_ctrls0.wrQLenPdf::49                     0                       # What write queue length does an incoming req see
system.mem_ctrls0.wrQLenPdf::50                     0                       # What write queue length does an incoming req see
system.mem_ctrls0.wrQLenPdf::51                     0                       # What write queue length does an incoming req see
system.mem_ctrls0.wrQLenPdf::52                     0                       # What write queue length does an incoming req see
system.mem_ctrls0.wrQLenPdf::53                     0                       # What write queue length does an incoming req see
system.mem_ctrls0.wrQLenPdf::54                     0                       # What write queue length does an incoming req see
system.mem_ctrls0.wrQLenPdf::55                     0                       # What write queue length does an incoming req see
system.mem_ctrls0.wrQLenPdf::56                     0                       # What write queue length does an incoming req see
system.mem_ctrls0.wrQLenPdf::57                     0                       # What write queue length does an incoming req see
system.mem_ctrls0.wrQLenPdf::58                     0                       # What write queue length does an incoming req see
system.mem_ctrls0.wrQLenPdf::59                     0                       # What write queue length does an incoming req see
system.mem_ctrls0.wrQLenPdf::60                     0                       # What write queue length does an incoming req see
system.mem_ctrls0.wrQLenPdf::61                     0                       # What write queue length does an incoming req see
system.mem_ctrls0.wrQLenPdf::62                     0                       # What write queue length does an incoming req see
system.mem_ctrls0.wrQLenPdf::63                     0                       # What write queue length does an incoming req see
system.mem_ctrls0.bytesPerActivate::samples        24834                       # Bytes accessed per row activation
system.mem_ctrls0.bytesPerActivate::mean   123.943626                       # Bytes accessed per row activation
system.mem_ctrls0.bytesPerActivate::gmean    88.035833                       # Bytes accessed per row activation
system.mem_ctrls0.bytesPerActivate::stdev   172.797933                       # Bytes accessed per row activation
system.mem_ctrls0.bytesPerActivate::0-127        17963     72.33%     72.33% # Bytes accessed per row activation
system.mem_ctrls0.bytesPerActivate::128-255         4824     19.42%     91.76% # Bytes accessed per row activation
system.mem_ctrls0.bytesPerActivate::256-383          222      0.89%     92.65% # Bytes accessed per row activation
system.mem_ctrls0.bytesPerActivate::384-511          419      1.69%     94.34% # Bytes accessed per row activation
system.mem_ctrls0.bytesPerActivate::512-639          580      2.34%     96.67% # Bytes accessed per row activation
system.mem_ctrls0.bytesPerActivate::640-767          226      0.91%     97.58% # Bytes accessed per row activation
system.mem_ctrls0.bytesPerActivate::768-895           38      0.15%     97.74% # Bytes accessed per row activation
system.mem_ctrls0.bytesPerActivate::896-1023           24      0.10%     97.83% # Bytes accessed per row activation
system.mem_ctrls0.bytesPerActivate::1024-1151          538      2.17%    100.00% # Bytes accessed per row activation
system.mem_ctrls0.bytesPerActivate::total        24834                       # Bytes accessed per row activation
system.mem_ctrls0.totQLat                  1382082097                       # Total ticks spent queuing
system.mem_ctrls0.totMemAccLat             2283844597                       # Total ticks spent from burst creation until serviced by the DRAM
system.mem_ctrls0.totBusLat                 240470000                       # Total ticks spent in databus transfers
system.mem_ctrls0.avgQLat                    28737.10                       # Average queueing delay per DRAM burst
system.mem_ctrls0.avgBusLat                   5000.00                       # Average bus latency per DRAM burst
system.mem_ctrls0.avgMemAccLat               47487.10                       # Average memory access latency per DRAM burst
system.mem_ctrls0.avgRdBW                      115.59                       # Average DRAM read bandwidth in MiByte/s
system.mem_ctrls0.avgWrBW                        0.00                       # Average achieved write bandwidth in MiByte/s
system.mem_ctrls0.avgRdBWSys                   115.59                       # Average system read bandwidth in MiByte/s
system.mem_ctrls0.avgWrBWSys                     0.00                       # Average system write bandwidth in MiByte/s
system.mem_ctrls0.peakBW                     12800.00                       # Theoretical peak bandwidth in MiByte/s
system.mem_ctrls0.busUtil                        0.90                       # Data bus utilization in percentage
system.mem_ctrls0.busUtilRead                    0.90                       # Data bus utilization in percentage for reads
system.mem_ctrls0.busUtilWrite                   0.00                       # Data bus utilization in percentage for writes
system.mem_ctrls0.avgRdQLen                      1.17                       # Average read queue length when enqueuing
system.mem_ctrls0.avgWrQLen                      0.00                       # Average write queue length when enqueuing
system.mem_ctrls0.readRowHits                   23260                       # Number of row buffer hits during reads
system.mem_ctrls0.writeRowHits                      0                       # Number of row buffer hits during writes
system.mem_ctrls0.readRowHitRate                48.36                       # Row buffer hit rate for reads
system.mem_ctrls0.writeRowHitRate                 nan                       # Row buffer hit rate for writes
system.mem_ctrls0.avgGap                    322396.57                       # Average gap between requests
system.mem_ctrls0.pageHitRate                   48.36                       # Row buffer hit rate, read and write combined
system.mem_ctrls0_0.actEnergy                94762080                       # Energy for activate commands per rank (pJ)
system.mem_ctrls0_0.preEnergy                50367240                       # Energy for precharge commands per rank (pJ)
system.mem_ctrls0_0.readEnergy              180777660                       # Energy for read commands per rank (pJ)
system.mem_ctrls0_0.writeEnergy                     0                       # Energy for write commands per rank (pJ)
system.mem_ctrls0_0.refreshEnergy        316539600.000000                       # Energy for refresh commands per rank (pJ)
system.mem_ctrls0_0.actBackEnergy           428349300                       # Energy for active background per rank (pJ)
system.mem_ctrls0_0.preBackEnergy            19028640                       # Energy for precharge background per rank (pJ)
system.mem_ctrls0_0.actPowerDownEnergy     1286485440                       # Energy for active power-down per rank (pJ)
system.mem_ctrls0_0.prePowerDownEnergy       54538080                       # Energy for precharge power-down per rank (pJ)
system.mem_ctrls0_0.selfRefreshEnergy      5446623420                       # Energy for self refresh per rank (pJ)
system.mem_ctrls0_0.totalEnergy            7877471460                       # Total energy per rank (pJ)
system.mem_ctrls0_0.averagePower           295.833709                       # Core power per rank (mW)
system.mem_ctrls0_0.totalIdleTime         14530216705                       # Total Idle time Per DRAM Rank
system.mem_ctrls0_0.memoryStateTime::IDLE      5031233                       # Time in different power states
system.mem_ctrls0_0.memoryStateTime::REF    133954000                       # Time in different power states
system.mem_ctrls0_0.memoryStateTime::SREF  22675855224                       # Time in different power states
system.mem_ctrls0_0.memoryStateTime::PRE_PDN    141992879                       # Time in different power states
system.mem_ctrls0_0.memoryStateTime::ACT    849750332                       # Time in different power states
system.mem_ctrls0_0.memoryStateTime::ACT_PDN   2821454306                       # Time in different power states
system.mem_ctrls0_1.actEnergy                82552680                       # Energy for activate commands per rank (pJ)
system.mem_ctrls0_1.preEnergy                43877790                       # Energy for precharge commands per rank (pJ)
system.mem_ctrls0_1.readEnergy              162613500                       # Energy for read commands per rank (pJ)
system.mem_ctrls0_1.writeEnergy                     0                       # Energy for write commands per rank (pJ)
system.mem_ctrls0_1.refreshEnergy        288266160.000000                       # Energy for refresh commands per rank (pJ)
system.mem_ctrls0_1.actBackEnergy           388114140                       # Energy for active background per rank (pJ)
system.mem_ctrls0_1.preBackEnergy            16077120                       # Energy for precharge background per rank (pJ)
system.mem_ctrls0_1.actPowerDownEnergy     1156947240                       # Energy for active power-down per rank (pJ)
system.mem_ctrls0_1.prePowerDownEnergy       54566880                       # Energy for precharge power-down per rank (pJ)
system.mem_ctrls0_1.selfRefreshEnergy      5539461240                       # Energy for self refresh per rank (pJ)
system.mem_ctrls0_1.totalEnergy            7732476750                       # Total energy per rank (pJ)
system.mem_ctrls0_1.averagePower           290.388520                       # Core power per rank (mW)
system.mem_ctrls0_1.totalIdleTime         14619381713                       # Total Idle time Per DRAM Rank
system.mem_ctrls0_1.memoryStateTime::IDLE      5387577                       # Time in different power states
system.mem_ctrls0_1.memoryStateTime::REF    122012000                       # Time in different power states
system.mem_ctrls0_1.memoryStateTime::SREF  23055773474                       # Time in different power states
system.mem_ctrls0_1.memoryStateTime::PRE_PDN    142140524                       # Time in different power states
system.mem_ctrls0_1.memoryStateTime::ACT    765721725                       # Time in different power states
system.mem_ctrls0_1.memoryStateTime::ACT_PDN   2537002674                       # Time in different power states
system.mem_ctrls1.pwrStateResidencyTicks::UNDEFINED  26628037974                       # Cumulative time (in ticks) in various power states
system.mem_ctrls1.bytes_read::cpu0.inst         34752                       # Number of bytes read from this memory
system.mem_ctrls1.bytes_read::cpu0.data        735168                       # Number of bytes read from this memory
system.mem_ctrls1.bytes_read::cpu1.inst         33856                       # Number of bytes read from this memory
system.mem_ctrls1.bytes_read::cpu1.data        734464                       # Number of bytes read from this memory
system.mem_ctrls1.bytes_read::cpu2.inst         34048                       # Number of bytes read from this memory
system.mem_ctrls1.bytes_read::cpu2.data        734272                       # Number of bytes read from this memory
system.mem_ctrls1.bytes_read::cpu3.inst         34048                       # Number of bytes read from this memory
system.mem_ctrls1.bytes_read::cpu3.data        734144                       # Number of bytes read from this memory
system.mem_ctrls1.bytes_read::total           3074752                       # Number of bytes read from this memory
system.mem_ctrls1.bytes_inst_read::cpu0.inst        34752                       # Number of instructions bytes read from this memory
system.mem_ctrls1.bytes_inst_read::cpu1.inst        33856                       # Number of instructions bytes read from this memory
system.mem_ctrls1.bytes_inst_read::cpu2.inst        34048                       # Number of instructions bytes read from this memory
system.mem_ctrls1.bytes_inst_read::cpu3.inst        34048                       # Number of instructions bytes read from this memory
system.mem_ctrls1.bytes_inst_read::total       136704                       # Number of instructions bytes read from this memory
system.mem_ctrls1.num_reads::cpu0.inst            543                       # Number of read requests responded to by this memory
system.mem_ctrls1.num_reads::cpu0.data          11487                       # Number of read requests responded to by this memory
system.mem_ctrls1.num_reads::cpu1.inst            529                       # Number of read requests responded to by this memory
system.mem_ctrls1.num_reads::cpu1.data          11476                       # Number of read requests responded to by this memory
system.mem_ctrls1.num_reads::cpu2.inst            532                       # Number of read requests responded to by this memory
system.mem_ctrls1.num_reads::cpu2.data          11473                       # Number of read requests responded to by this memory
system.mem_ctrls1.num_reads::cpu3.inst            532                       # Number of read requests responded to by this memory
system.mem_ctrls1.num_reads::cpu3.data          11471                       # Number of read requests responded to by this memory
system.mem_ctrls1.num_reads::total              48043                       # Number of read requests responded to by this memory
system.mem_ctrls1.bw_read::cpu0.inst          1305091                       # Total read bandwidth from this memory (bytes/s)
system.mem_ctrls1.bw_read::cpu0.data         27608793                       # Total read bandwidth from this memory (bytes/s)
system.mem_ctrls1.bw_read::cpu1.inst          1271442                       # Total read bandwidth from this memory (bytes/s)
system.mem_ctrls1.bw_read::cpu1.data         27582355                       # Total read bandwidth from this memory (bytes/s)
system.mem_ctrls1.bw_read::cpu2.inst          1278652                       # Total read bandwidth from this memory (bytes/s)
system.mem_ctrls1.bw_read::cpu2.data         27575145                       # Total read bandwidth from this memory (bytes/s)
system.mem_ctrls1.bw_read::cpu3.inst          1278652                       # Total read bandwidth from this memory (bytes/s)
system.mem_ctrls1.bw_read::cpu3.data         27570338                       # Total read bandwidth from this memory (bytes/s)
system.mem_ctrls1.bw_read::total            115470468                       # Total read bandwidth from this memory (bytes/s)
system.mem_ctrls1.bw_inst_read::cpu0.inst      1305091                       # Instruction read bandwidth from this memory (bytes/s)
system.mem_ctrls1.bw_inst_read::cpu1.inst      1271442                       # Instruction read bandwidth from this memory (bytes/s)
system.mem_ctrls1.bw_inst_read::cpu2.inst      1278652                       # Instruction read bandwidth from this memory (bytes/s)
system.mem_ctrls1.bw_inst_read::cpu3.inst      1278652                       # Instruction read bandwidth from this memory (bytes/s)
system.mem_ctrls1.bw_inst_read::total         5133837                       # Instruction read bandwidth from this memory (bytes/s)
system.mem_ctrls1.bw_total::cpu0.inst         1305091                       # Total bandwidth to/from this memory (bytes/s)
system.mem_ctrls1.bw_total::cpu0.data        27608793                       # Total bandwidth to/from this memory (bytes/s)
system.mem_ctrls1.bw_total::cpu1.inst         1271442                       # Total bandwidth to/from this memory (bytes/s)
system.mem_ctrls1.bw_total::cpu1.data        27582355                       # Total bandwidth to/from this memory (bytes/s)
system.mem_ctrls1.bw_total::cpu2.inst         1278652                       # Total bandwidth to/from this memory (bytes/s)
system.mem_ctrls1.bw_total::cpu2.data        27575145                       # Total bandwidth to/from this memory (bytes/s)
system.mem_ctrls1.bw_total::cpu3.inst         1278652                       # Total bandwidth to/from this memory (bytes/s)
system.mem_ctrls1.bw_total::cpu3.data        27570338                       # Total bandwidth to/from this memory (bytes/s)
system.mem_ctrls1.bw_total::total           115470468                       # Total bandwidth to/from this memory (bytes/s)
system.mem_ctrls1.readReqs                      48043                       # Number of read requests accepted
system.mem_ctrls1.writeReqs                         0                       # Number of write requests accepted
system.mem_ctrls1.readBursts                    48043                       # Number of DRAM read bursts, including those serviced by the write queue
system.mem_ctrls1.writeBursts                       0                       # Number of DRAM write bursts, including those merged in the write queue
system.mem_ctrls1.bytesReadDRAM               3074752                       # Total number of bytes read from DRAM
system.mem_ctrls1.bytesReadWrQ                      0                       # Total number of bytes read from write queue
system.mem_ctrls1.bytesWritten                      0                       # Total number of bytes written to DRAM
system.mem_ctrls1.bytesReadSys                3074752                       # Total read bytes from the system interface side
system.mem_ctrls1.bytesWrittenSys                   0                       # Total written bytes from the system interface side
system.mem_ctrls1.servicedByWrQ                     0                       # Number of DRAM read bursts serviced by the write queue
system.mem_ctrls1.mergedWrBursts                    0                       # Number of DRAM write bursts merged with an existing one
system.mem_ctrls1.neitherReadNorWriteReqs            0                       # Number of requests that are neither read nor write
system.mem_ctrls1.perBankRdBursts::0             2793                       # Per bank write bursts
system.mem_ctrls1.perBankRdBursts::1             3070                       # Per bank write bursts
system.mem_ctrls1.perBankRdBursts::2             3122                       # Per bank write bursts
system.mem_ctrls1.perBankRdBursts::3             3201                       # Per bank write bursts
system.mem_ctrls1.perBankRdBursts::4             3223                       # Per bank write bursts
system.mem_ctrls1.perBankRdBursts::5             3265                       # Per bank write bursts
system.mem_ctrls1.perBankRdBursts::6             3347                       # Per bank write bursts
system.mem_ctrls1.perBankRdBursts::7             3257                       # Per bank write bursts
system.mem_ctrls1.perBankRdBursts::8             3283                       # Per bank write bursts
system.mem_ctrls1.perBankRdBursts::9             2941                       # Per bank write bursts
system.mem_ctrls1.perBankRdBursts::10            2817                       # Per bank write bursts
system.mem_ctrls1.perBankRdBursts::11            2832                       # Per bank write bursts
system.mem_ctrls1.perBankRdBursts::12            2795                       # Per bank write bursts
system.mem_ctrls1.perBankRdBursts::13            2730                       # Per bank write bursts
system.mem_ctrls1.perBankRdBursts::14            2682                       # Per bank write bursts
system.mem_ctrls1.perBankRdBursts::15            2685                       # Per bank write bursts
system.mem_ctrls1.perBankWrBursts::0                0                       # Per bank write bursts
system.mem_ctrls1.perBankWrBursts::1                0                       # Per bank write bursts
system.mem_ctrls1.perBankWrBursts::2                0                       # Per bank write bursts
system.mem_ctrls1.perBankWrBursts::3                0                       # Per bank write bursts
system.mem_ctrls1.perBankWrBursts::4                0                       # Per bank write bursts
system.mem_ctrls1.perBankWrBursts::5                0                       # Per bank write bursts
system.mem_ctrls1.perBankWrBursts::6                0                       # Per bank write bursts
system.mem_ctrls1.perBankWrBursts::7                0                       # Per bank write bursts
system.mem_ctrls1.perBankWrBursts::8                0                       # Per bank write bursts
system.mem_ctrls1.perBankWrBursts::9                0                       # Per bank write bursts
system.mem_ctrls1.perBankWrBursts::10               0                       # Per bank write bursts
system.mem_ctrls1.perBankWrBursts::11               0                       # Per bank write bursts
system.mem_ctrls1.perBankWrBursts::12               0                       # Per bank write bursts
system.mem_ctrls1.perBankWrBursts::13               0                       # Per bank write bursts
system.mem_ctrls1.perBankWrBursts::14               0                       # Per bank write bursts
system.mem_ctrls1.perBankWrBursts::15               0                       # Per bank write bursts
system.mem_ctrls1.numRdRetry                        0                       # Number of times read queue was full causing retry
system.mem_ctrls1.numWrRetry                        0                       # Number of times write queue was full causing retry
system.mem_ctrls1.totGap                  15506020437                       # Total gap between requests
system.mem_ctrls1.readPktSize::0                    0                       # Read request sizes (log2)
system.mem_ctrls1.readPktSize::1                    0                       # Read request sizes (log2)
system.mem_ctrls1.readPktSize::2                    0                       # Read request sizes (log2)
system.mem_ctrls1.readPktSize::3                    0                       # Read request sizes (log2)
system.mem_ctrls1.readPktSize::4                    0                       # Read request sizes (log2)
system.mem_ctrls1.readPktSize::5                    0                       # Read request sizes (log2)
system.mem_ctrls1.readPktSize::6                48043                       # Read request sizes (log2)
system.mem_ctrls1.writePktSize::0                   0                       # Write request sizes (log2)
system.mem_ctrls1.writePktSize::1                   0                       # Write request sizes (log2)
system.mem_ctrls1.writePktSize::2                   0                       # Write request sizes (log2)
system.mem_ctrls1.writePktSize::3                   0                       # Write request sizes (log2)
system.mem_ctrls1.writePktSize::4                   0                       # Write request sizes (log2)
system.mem_ctrls1.writePktSize::5                   0                       # Write request sizes (log2)
system.mem_ctrls1.writePktSize::6                   0                       # Write request sizes (log2)
system.mem_ctrls1.rdQLenPdf::0                  26775                       # What read queue length does an incoming req see
system.mem_ctrls1.rdQLenPdf::1                  14734                       # What read queue length does an incoming req see
system.mem_ctrls1.rdQLenPdf::2                   5677                       # What read queue length does an incoming req see
system.mem_ctrls1.rdQLenPdf::3                    735                       # What read queue length does an incoming req see
system.mem_ctrls1.rdQLenPdf::4                     79                       # What read queue length does an incoming req see
system.mem_ctrls1.rdQLenPdf::5                     27                       # What read queue length does an incoming req see
system.mem_ctrls1.rdQLenPdf::6                      7                       # What read queue length does an incoming req see
system.mem_ctrls1.rdQLenPdf::7                      5                       # What read queue length does an incoming req see
system.mem_ctrls1.rdQLenPdf::8                      4                       # What read queue length does an incoming req see
system.mem_ctrls1.rdQLenPdf::9                      0                       # What read queue length does an incoming req see
system.mem_ctrls1.rdQLenPdf::10                     0                       # What read queue length does an incoming req see
system.mem_ctrls1.rdQLenPdf::11                     0                       # What read queue length does an incoming req see
system.mem_ctrls1.rdQLenPdf::12                     0                       # What read queue length does an incoming req see
system.mem_ctrls1.rdQLenPdf::13                     0                       # What read queue length does an incoming req see
system.mem_ctrls1.rdQLenPdf::14                     0                       # What read queue length does an incoming req see
system.mem_ctrls1.rdQLenPdf::15                     0                       # What read queue length does an incoming req see
system.mem_ctrls1.rdQLenPdf::16                     0                       # What read queue length does an incoming req see
system.mem_ctrls1.rdQLenPdf::17                     0                       # What read queue length does an incoming req see
system.mem_ctrls1.rdQLenPdf::18                     0                       # What read queue length does an incoming req see
system.mem_ctrls1.rdQLenPdf::19                     0                       # What read queue length does an incoming req see
system.mem_ctrls1.rdQLenPdf::20                     0                       # What read queue length does an incoming req see
system.mem_ctrls1.rdQLenPdf::21                     0                       # What read queue length does an incoming req see
system.mem_ctrls1.rdQLenPdf::22                     0                       # What read queue length does an incoming req see
system.mem_ctrls1.rdQLenPdf::23                     0                       # What read queue length does an incoming req see
system.mem_ctrls1.rdQLenPdf::24                     0                       # What read queue length does an incoming req see
system.mem_ctrls1.rdQLenPdf::25                     0                       # What read queue length does an incoming req see
system.mem_ctrls1.rdQLenPdf::26                     0                       # What read queue length does an incoming req see
system.mem_ctrls1.rdQLenPdf::27                     0                       # What read queue length does an incoming req see
system.mem_ctrls1.rdQLenPdf::28                     0                       # What read queue length does an incoming req see
system.mem_ctrls1.rdQLenPdf::29                     0                       # What read queue length does an incoming req see
system.mem_ctrls1.rdQLenPdf::30                     0                       # What read queue length does an incoming req see
system.mem_ctrls1.rdQLenPdf::31                     0                       # What read queue length does an incoming req see
system.mem_ctrls1.wrQLenPdf::0                      0                       # What write queue length does an incoming req see
system.mem_ctrls1.wrQLenPdf::1                      0                       # What write queue length does an incoming req see
system.mem_ctrls1.wrQLenPdf::2                      0                       # What write queue length does an incoming req see
system.mem_ctrls1.wrQLenPdf::3                      0                       # What write queue length does an incoming req see
system.mem_ctrls1.wrQLenPdf::4                      0                       # What write queue length does an incoming req see
system.mem_ctrls1.wrQLenPdf::5                      0                       # What write queue length does an incoming req see
system.mem_ctrls1.wrQLenPdf::6                      0                       # What write queue length does an incoming req see
system.mem_ctrls1.wrQLenPdf::7                      0                       # What write queue length does an incoming req see
system.mem_ctrls1.wrQLenPdf::8                      0                       # What write queue length does an incoming req see
system.mem_ctrls1.wrQLenPdf::9                      0                       # What write queue length does an incoming req see
system.mem_ctrls1.wrQLenPdf::10                     0                       # What write queue length does an incoming req see
system.mem_ctrls1.wrQLenPdf::11                     0                       # What write queue length does an incoming req see
system.mem_ctrls1.wrQLenPdf::12                     0                       # What write queue length does an incoming req see
system.mem_ctrls1.wrQLenPdf::13                     0                       # What write queue length does an incoming req see
system.mem_ctrls1.wrQLenPdf::14                     0                       # What write queue length does an incoming req see
system.mem_ctrls1.wrQLenPdf::15                     0                       # What write queue length does an incoming req see
system.mem_ctrls1.wrQLenPdf::16                     0                       # What write queue length does an incoming req see
system.mem_ctrls1.wrQLenPdf::17                     0                       # What write queue length does an incoming req see
system.mem_ctrls1.wrQLenPdf::18                     0                       # What write queue length does an incoming req see
system.mem_ctrls1.wrQLenPdf::19                     0                       # What write queue length does an incoming req see
system.mem_ctrls1.wrQLenPdf::20                     0                       # What write queue length does an incoming req see
system.mem_ctrls1.wrQLenPdf::21                     0                       # What write queue length does an incoming req see
system.mem_ctrls1.wrQLenPdf::22                     0                       # What write queue length does an incoming req see
system.mem_ctrls1.wrQLenPdf::23                     0                       # What write queue length does an incoming req see
system.mem_ctrls1.wrQLenPdf::24                     0                       # What write queue length does an incoming req see
system.mem_ctrls1.wrQLenPdf::25                     0                       # What write queue length does an incoming req see
system.mem_ctrls1.wrQLenPdf::26                     0                       # What write queue length does an incoming req see
system.mem_ctrls1.wrQLenPdf::27                     0                       # What write queue length does an incoming req see
system.mem_ctrls1.wrQLenPdf::28                     0                       # What write queue length does an incoming req see
system.mem_ctrls1.wrQLenPdf::29                     0                       # What write queue length does an incoming req see
system.mem_ctrls1.wrQLenPdf::30                     0                       # What write queue length does an incoming req see
system.mem_ctrls1.wrQLenPdf::31                     0                       # What write queue length does an incoming req see
system.mem_ctrls1.wrQLenPdf::32                     0                       # What write queue length does an incoming req see
system.mem_ctrls1.wrQLenPdf::33                     0                       # What write queue length does an incoming req see
system.mem_ctrls1.wrQLenPdf::34                     0                       # What write queue length does an incoming req see
system.mem_ctrls1.wrQLenPdf::35                     0                       # What write queue length does an incoming req see
system.mem_ctrls1.wrQLenPdf::36                     0                       # What write queue length does an incoming req see
system.mem_ctrls1.wrQLenPdf::37                     0                       # What write queue length does an incoming req see
system.mem_ctrls1.wrQLenPdf::38                     0                       # What write queue length does an incoming req see
system.mem_ctrls1.wrQLenPdf::39                     0                       # What write queue length does an incoming req see
system.mem_ctrls1.wrQLenPdf::40                     0                       # What write queue length does an incoming req see
system.mem_ctrls1.wrQLenPdf::41                     0                       # What write queue length does an incoming req see
system.mem_ctrls1.wrQLenPdf::42                     0                       # What write queue length does an incoming req see
system.mem_ctrls1.wrQLenPdf::43                     0                       # What write queue length does an incoming req see
system.mem_ctrls1.wrQLenPdf::44                     0                       # What write queue length does an incoming req see
system.mem_ctrls1.wrQLenPdf::45                     0                       # What write queue length does an incoming req see
system.mem_ctrls1.wrQLenPdf::46                     0                       # What write queue length does an incoming req see
system.mem_ctrls1.wrQLenPdf::47                     0                       # What write queue length does an incoming req see
system.mem_ctrls1.wrQLenPdf::48                     0                       # What write queue length does an incoming req see
system.mem_ctrls1.wrQLenPdf::49                     0                       # What write queue length does an incoming req see
system.mem_ctrls1.wrQLenPdf::50                     0                       # What write queue length does an incoming req see
system.mem_ctrls1.wrQLenPdf::51                     0                       # What write queue length does an incoming req see
system.mem_ctrls1.wrQLenPdf::52                     0                       # What write queue length does an incoming req see
system.mem_ctrls1.wrQLenPdf::53                     0                       # What write queue length does an incoming req see
system.mem_ctrls1.wrQLenPdf::54                     0                       # What write queue length does an incoming req see
system.mem_ctrls1.wrQLenPdf::55                     0                       # What write queue length does an incoming req see
system.mem_ctrls1.wrQLenPdf::56                     0                       # What write queue length does an incoming req see
system.mem_ctrls1.wrQLenPdf::57                     0                       # What write queue length does an incoming req see
system.mem_ctrls1.wrQLenPdf::58                     0                       # What write queue length does an incoming req see
system.mem_ctrls1.wrQLenPdf::59                     0                       # What write queue length does an incoming req see
system.mem_ctrls1.wrQLenPdf::60                     0                       # What write queue length does an incoming req see
system.mem_ctrls1.wrQLenPdf::61                     0                       # What write queue length does an incoming req see
system.mem_ctrls1.wrQLenPdf::62                     0                       # What write queue length does an incoming req see
system.mem_ctrls1.wrQLenPdf::63                     0                       # What write queue length does an incoming req see
system.mem_ctrls1.bytesPerActivate::samples        24807                       # Bytes accessed per row activation
system.mem_ctrls1.bytesPerActivate::mean   123.946950                       # Bytes accessed per row activation
system.mem_ctrls1.bytesPerActivate::gmean    87.977691                       # Bytes accessed per row activation
system.mem_ctrls1.bytesPerActivate::stdev   172.991852                       # Bytes accessed per row activation
system.mem_ctrls1.bytesPerActivate::0-127        17969     72.44%     72.44% # Bytes accessed per row activation
system.mem_ctrls1.bytesPerActivate::128-255         4814     19.41%     91.84% # Bytes accessed per row activation
system.mem_ctrls1.bytesPerActivate::256-383          199      0.80%     92.64% # Bytes accessed per row activation
system.mem_ctrls1.bytesPerActivate::384-511          411      1.66%     94.30% # Bytes accessed per row activation
system.mem_ctrls1.bytesPerActivate::512-639          571      2.30%     96.60% # Bytes accessed per row activation
system.mem_ctrls1.bytesPerActivate::640-767          243      0.98%     97.58% # Bytes accessed per row activation
system.mem_ctrls1.bytesPerActivate::768-895           41      0.17%     97.75% # Bytes accessed per row activation
system.mem_ctrls1.bytesPerActivate::896-1023           23      0.09%     97.84% # Bytes accessed per row activation
system.mem_ctrls1.bytesPerActivate::1024-1151          536      2.16%    100.00% # Bytes accessed per row activation
system.mem_ctrls1.bytesPerActivate::total        24807                       # Bytes accessed per row activation
system.mem_ctrls1.totQLat                  1388681914                       # Total ticks spent queuing
system.mem_ctrls1.totMemAccLat             2289488164                       # Total ticks spent from burst creation until serviced by the DRAM
system.mem_ctrls1.totBusLat                 240215000                       # Total ticks spent in databus transfers
system.mem_ctrls1.avgQLat                    28904.98                       # Average queueing delay per DRAM burst
system.mem_ctrls1.avgBusLat                   5000.00                       # Average bus latency per DRAM burst
system.mem_ctrls1.avgMemAccLat               47654.98                       # Average memory access latency per DRAM burst
system.mem_ctrls1.avgRdBW                      115.47                       # Average DRAM read bandwidth in MiByte/s
system.mem_ctrls1.avgWrBW                        0.00                       # Average achieved write bandwidth in MiByte/s
system.mem_ctrls1.avgRdBWSys                   115.47                       # Average system read bandwidth in MiByte/s
system.mem_ctrls1.avgWrBWSys                     0.00                       # Average system write bandwidth in MiByte/s
system.mem_ctrls1.peakBW                     12800.00                       # Theoretical peak bandwidth in MiByte/s
system.mem_ctrls1.busUtil                        0.90                       # Data bus utilization in percentage
system.mem_ctrls1.busUtilRead                    0.90                       # Data bus utilization in percentage for reads
system.mem_ctrls1.busUtilWrite                   0.00                       # Data bus utilization in percentage for writes
system.mem_ctrls1.avgRdQLen                      1.18                       # Average read queue length when enqueuing
system.mem_ctrls1.avgWrQLen                      0.00                       # Average write queue length when enqueuing
system.mem_ctrls1.readRowHits                   23236                       # Number of row buffer hits during reads
system.mem_ctrls1.writeRowHits                      0                       # Number of row buffer hits during writes
system.mem_ctrls1.readRowHitRate                48.37                       # Row buffer hit rate for reads
system.mem_ctrls1.writeRowHitRate                 nan                       # Row buffer hit rate for writes
system.mem_ctrls1.avgGap                    322752.96                       # Average gap between requests
system.mem_ctrls1.pageHitRate                   48.37                       # Row buffer hit rate, read and write combined
system.mem_ctrls1_0.actEnergy                94512180                       # Energy for activate commands per rank (pJ)
system.mem_ctrls1_0.preEnergy                50234415                       # Energy for precharge commands per rank (pJ)
system.mem_ctrls1_0.readEnergy              180484920                       # Energy for read commands per rank (pJ)
system.mem_ctrls1_0.writeEnergy                     0                       # Energy for write commands per rank (pJ)
system.mem_ctrls1_0.refreshEnergy        317154240.000000                       # Energy for refresh commands per rank (pJ)
system.mem_ctrls1_0.actBackEnergy           427167120                       # Energy for active background per rank (pJ)
system.mem_ctrls1_0.preBackEnergy            19064640                       # Energy for precharge background per rank (pJ)
system.mem_ctrls1_0.actPowerDownEnergy     1298058720                       # Energy for active power-down per rank (pJ)
system.mem_ctrls1_0.prePowerDownEnergy       48742560                       # Energy for precharge power-down per rank (pJ)
system.mem_ctrls1_0.selfRefreshEnergy      5444754120                       # Energy for self refresh per rank (pJ)
system.mem_ctrls1_0.totalEnergy            7880172915                       # Total energy per rank (pJ)
system.mem_ctrls1_0.averagePower           295.935160                       # Core power per rank (mW)
system.mem_ctrls1_0.totalIdleTime         14532825607                       # Total Idle time Per DRAM Rank
system.mem_ctrls1_0.memoryStateTime::IDLE      4777965                       # Time in different power states
system.mem_ctrls1_0.memoryStateTime::REF    134214000                       # Time in different power states
system.mem_ctrls1_0.memoryStateTime::SREF  22668068974                       # Time in different power states
system.mem_ctrls1_0.memoryStateTime::PRE_PDN    126935783                       # Time in different power states
system.mem_ctrls1_0.memoryStateTime::ACT    847271894                       # Time in different power states
system.mem_ctrls1_0.memoryStateTime::ACT_PDN   2846769358                       # Time in different power states
system.mem_ctrls1_1.actEnergy                82609800                       # Energy for activate commands per rank (pJ)
system.mem_ctrls1_1.preEnergy                43908150                       # Energy for precharge commands per rank (pJ)
system.mem_ctrls1_1.readEnergy              162542100                       # Energy for read commands per rank (pJ)
system.mem_ctrls1_1.writeEnergy                     0                       # Energy for write commands per rank (pJ)
system.mem_ctrls1_1.refreshEnergy        286422240.000000                       # Energy for refresh commands per rank (pJ)
system.mem_ctrls1_1.actBackEnergy           387406770                       # Energy for active background per rank (pJ)
system.mem_ctrls1_1.preBackEnergy            15787200                       # Energy for precharge background per rank (pJ)
system.mem_ctrls1_1.actPowerDownEnergy     1147867140                       # Energy for active power-down per rank (pJ)
system.mem_ctrls1_1.prePowerDownEnergy       56915040                       # Energy for precharge power-down per rank (pJ)
system.mem_ctrls1_1.selfRefreshEnergy      5542773900                       # Energy for self refresh per rank (pJ)
system.mem_ctrls1_1.totalEnergy            7726232340                       # Total energy per rank (pJ)
system.mem_ctrls1_1.averagePower           290.154014                       # Core power per rank (mW)
system.mem_ctrls1_1.totalIdleTime         14629261156                       # Total Idle time Per DRAM Rank
system.mem_ctrls1_1.memoryStateTime::IDLE      5100789                       # Time in different power states
system.mem_ctrls1_1.memoryStateTime::REF    121226000                       # Time in different power states
system.mem_ctrls1_1.memoryStateTime::SREF  23071881974                       # Time in different power states
system.mem_ctrls1_1.memoryStateTime::PRE_PDN    148215967                       # Time in different power states
system.mem_ctrls1_1.memoryStateTime::ACT    764231790                       # Time in different power states
system.mem_ctrls1_1.memoryStateTime::ACT_PDN   2517381454                       # Time in different power states
system.pwrStateResidencyTicks::UNDEFINED  26628037974                       # Cumulative time (in ticks) in various power states
system.cpu0.branchPred.lookups                6681413                       # Number of BP lookups
system.cpu0.branchPred.condPredicted          6681413                       # Number of conditional branches predicted
system.cpu0.branchPred.condIncorrect             2696                       # Number of conditional branches incorrect
system.cpu0.branchPred.BTBLookups             6023481                       # Number of BTB lookups
system.cpu0.branchPred.BTBHits                      0                       # Number of BTB hits
system.cpu0.branchPred.BTBCorrect                   0                       # Number of correct BTB predictions (this stat may not work properly.
system.cpu0.branchPred.BTBHitPct             0.000000                       # BTB Hit Percentage
system.cpu0.branchPred.usedRAS                 609682                       # Number of times the RAS was used to get a target.
system.cpu0.branchPred.RASInCorrect               575                       # Number of incorrect RAS predictions.
system.cpu0.branchPred.indirectLookups        6023481                       # Number of indirect predictor lookups.
system.cpu0.branchPred.indirectHits           4360534                       # Number of indirect target hits.
system.cpu0.branchPred.indirectMisses         1662947                       # Number of indirect misses.
system.cpu0.branchPredindirectMispredicted         1803                       # Number of mispredicted indirect branches.
system.cpu_voltage_domain.voltage                   1                       # Voltage in Volts
system.cpu_clk_domain.clock                       333                       # Clock period in ticks
system.cpu0.dtb.walker.pwrStateResidencyTicks::UNDEFINED  26628037974                       # Cumulative time (in ticks) in various power states
system.cpu0.apic_clk_domain.clock                5328                       # Clock period in ticks
system.cpu0.interrupts.pwrStateResidencyTicks::UNDEFINED  26628037974                       # Cumulative time (in ticks) in various power states
system.cpu0.itb.walker.pwrStateResidencyTicks::UNDEFINED  26628037974                       # Cumulative time (in ticks) in various power states
system.cpu0.workload.num_syscalls                  16                       # Number of system calls
system.cpu0.pwrStateResidencyTicks::ON    26628037974                       # Cumulative time (in ticks) in various power states
system.cpu0.numCycles                        79964079                       # number of cpu cycles simulated
system.cpu0.numWorkItemsStarted                     0                       # number of work items this cpu started
system.cpu0.numWorkItemsCompleted                   0                       # number of work items this cpu completed
system.cpu0.fetch.icacheStallCycles          34083234                       # Number of cycles fetch is stalled on an Icache miss
system.cpu0.fetch.Insts                      99859185                       # Number of instructions fetch has processed
system.cpu0.fetch.Branches                    6681413                       # Number of branches that fetch encountered
system.cpu0.fetch.predictedBranches           4970216                       # Number of branches that fetch has predicted taken
system.cpu0.fetch.Cycles                     45707314                       # Number of cycles fetch has run and was not squashing or blocked
system.cpu0.fetch.SquashCycles                   7422                       # Number of cycles fetch has spent squashing
system.cpu0.fetch.MiscStallCycles                 186                       # Number of cycles fetch has spent waiting on interrupts, or bad addresses, or out of MSHRs
system.cpu0.fetch.PendingTrapStallCycles         1367                       # Number of stall cycles due to pending traps
system.cpu0.fetch.PendingQuiesceStallCycles            7                       # Number of stall cycles due to pending quiesce instructions
system.cpu0.fetch.CacheLines                 11341711                       # Number of cache lines fetched
system.cpu0.fetch.IcacheSquashes                 2085                       # Number of outstanding Icache misses that were squashed
system.cpu0.fetch.rateDist::samples          79795819                       # Number of instructions fetched each cycle (Total)
system.cpu0.fetch.rateDist::mean             1.850560                       # Number of instructions fetched each cycle (Total)
system.cpu0.fetch.rateDist::stdev            3.113232                       # Number of instructions fetched each cycle (Total)
system.cpu0.fetch.rateDist::underflows              0      0.00%      0.00% # Number of instructions fetched each cycle (Total)
system.cpu0.fetch.rateDist::0                55445341     69.48%     69.48% # Number of instructions fetched each cycle (Total)
system.cpu0.fetch.rateDist::1                 1683545      2.11%     71.59% # Number of instructions fetched each cycle (Total)
system.cpu0.fetch.rateDist::2                 1849450      2.32%     73.91% # Number of instructions fetched each cycle (Total)
system.cpu0.fetch.rateDist::3                 1972518      2.47%     76.38% # Number of instructions fetched each cycle (Total)
system.cpu0.fetch.rateDist::4                 1461497      1.83%     78.22% # Number of instructions fetched each cycle (Total)
system.cpu0.fetch.rateDist::5                 1583135      1.98%     80.20% # Number of instructions fetched each cycle (Total)
system.cpu0.fetch.rateDist::6                 1303541      1.63%     81.83% # Number of instructions fetched each cycle (Total)
system.cpu0.fetch.rateDist::7                 1190265      1.49%     83.32% # Number of instructions fetched each cycle (Total)
system.cpu0.fetch.rateDist::8                13306527     16.68%    100.00% # Number of instructions fetched each cycle (Total)
system.cpu0.fetch.rateDist::overflows               0      0.00%    100.00% # Number of instructions fetched each cycle (Total)
system.cpu0.fetch.rateDist::min_value               0                       # Number of instructions fetched each cycle (Total)
system.cpu0.fetch.rateDist::max_value               8                       # Number of instructions fetched each cycle (Total)
system.cpu0.fetch.rateDist::total            79795819                       # Number of instructions fetched each cycle (Total)
system.cpu0.fetch.branchRate                 0.083555                       # Number of branch fetches per cycle
system.cpu0.fetch.rate                       1.248801                       # Number of inst fetches per cycle
system.cpu0.decode.IdleCycles                24568707                       # Number of cycles decode is idle
system.cpu0.decode.BlockedCycles             32672810                       # Number of cycles decode is blocked
system.cpu0.decode.RunCycles                 18991297                       # Number of cycles decode is running
system.cpu0.decode.UnblockCycles              3559294                       # Number of cycles decode is unblocking
system.cpu0.decode.SquashCycles                  3711                       # Number of cycles decode is squashing
system.cpu0.decode.DecodedInsts             147651704                       # Number of instructions handled by decode
system.cpu0.rename.SquashCycles                  3711                       # Number of cycles rename is squashing
system.cpu0.rename.IdleCycles                26677203                       # Number of cycles rename is idle
system.cpu0.rename.BlockCycles                7254478                       # Number of cycles rename is blocking
system.cpu0.rename.serializeStallCycles           970                       # count of cycles rename stalled for serializing inst
system.cpu0.rename.RunCycles                 20279751                       # Number of cycles rename is running
system.cpu0.rename.UnblockCycles             25579706                       # Number of cycles rename is unblocking
system.cpu0.rename.RenamedInsts             147642331                       # Number of instructions processed by rename
system.cpu0.rename.ROBFullEvents                   71                       # Number of times rename has blocked due to ROB full
system.cpu0.rename.IQFullEvents               5331649                       # Number of times rename has blocked due to IQ full
system.cpu0.rename.LQFullEvents              17986290                       # Number of times rename has blocked due to LQ full
system.cpu0.rename.SQFullEvents                981062                       # Number of times rename has blocked due to SQ full
system.cpu0.rename.RenamedOperands          163333002                       # Number of destination operands rename has renamed
system.cpu0.rename.RenameLookups            347793371                       # Number of register rename lookups that rename has made
system.cpu0.rename.int_rename_lookups       163502133                       # Number of integer rename lookups
system.cpu0.rename.fp_rename_lookups        104253396                       # Number of floating rename lookups
system.cpu0.rename.CommittedMaps            163237805                       # Number of HB maps that are committed
system.cpu0.rename.UndoneMaps                   95106                       # Number of HB maps that are undone due to squashing
system.cpu0.rename.serializingInsts                20                       # count of serializing insts renamed
system.cpu0.rename.tempSerializingInsts            18                       # count of temporary serializing insts renamed
system.cpu0.rename.skidInsts                 26701102                       # count of insts added to the skid buffer
system.cpu0.memDep0.insertedLoads            29010679                       # Number of loads inserted to the mem dependence unit.
system.cpu0.memDep0.insertedStores            8015213                       # Number of stores inserted to the mem dependence unit.
system.cpu0.memDep0.conflictingLoads          6813573                       # Number of conflicting loads.
system.cpu0.memDep0.conflictingStores         1552143                       # Number of conflicting stores.
system.cpu0.iq.iqInstsAdded                 147626055                       # Number of instructions added to the IQ (excludes non-spec)
system.cpu0.iq.iqNonSpecInstsAdded                472                       # Number of non-speculative instructions added to the IQ
system.cpu0.iq.iqInstsIssued                148987462                       # Number of instructions issued
system.cpu0.iq.iqSquashedInstsIssued              125                       # Number of squashed instructions issued
system.cpu0.iq.iqSquashedInstsExamined          73616                       # Number of squashed instructions iterated over during squash; mainly for profiling
system.cpu0.iq.iqSquashedOperandsExamined        84092                       # Number of squashed operands that are examined and possibly removed from graph
system.cpu0.iq.iqSquashedNonSpecRemoved           420                       # Number of squashed non-spec instructions that were removed
system.cpu0.iq.issued_per_cycle::samples     79795819                       # Number of insts issued each cycle
system.cpu0.iq.issued_per_cycle::mean        1.867109                       # Number of insts issued each cycle
system.cpu0.iq.issued_per_cycle::stdev       1.855667                       # Number of insts issued each cycle
system.cpu0.iq.issued_per_cycle::underflows            0      0.00%      0.00% # Number of insts issued each cycle
system.cpu0.iq.issued_per_cycle::0           24664762     30.91%     30.91% # Number of insts issued each cycle
system.cpu0.iq.issued_per_cycle::1           15394565     19.29%     50.20% # Number of insts issued each cycle
[...]
system.l3.demand_mshr_miss_latency::cpu2.data   2053913446                       # number of demand (read+write) MSHR miss cycles
system.l3.demand_mshr_miss_latency::cpu3.inst     93846733                       # number of demand (read+write) MSHR miss cycles
system.l3.demand_mshr_miss_latency::cpu3.data   2147007713                       # number of demand (read+write) MSHR miss cycles
system.l3.demand_mshr_miss_latency::total   8771444278                       # number of demand (read+write) MSHR miss cycles
system.l3.overall_mshr_miss_latency::cpu0.inst     91668969                       # number of overall MSHR miss cycles
system.l3.overall_mshr_miss_latency::cpu0.data   2182986720                       # number of overall MSHR miss cycles
system.l3.overall_mshr_miss_latency::cpu1.inst     96150803                       # number of overall MSHR miss cycles
system.l3.overall_mshr_miss_latency::cpu1.data   2014671673                       # number of overall MSHR miss cycles
system.l3.overall_mshr_miss_latency::cpu2.inst     91198221                       # number of overall MSHR miss cycles
system.l3.overall_mshr_miss_latency::cpu2.data   2053913446                       # number of overall MSHR miss cycles
system.l3.overall_mshr_miss_latency::cpu3.inst     93846733                       # number of overall MSHR miss cycles
system.l3.overall_mshr_miss_latency::cpu3.data   2147007713                       # number of overall MSHR miss cycles
system.l3.overall_mshr_miss_latency::total   8771444278                       # number of overall MSHR miss cycles
system.l3.ReadExReq_mshr_miss_rate::cpu0.data     0.999780                       # mshr miss rate for ReadExReq accesses
system.l3.ReadExReq_mshr_miss_rate::cpu1.data     0.999780                       # mshr miss rate for ReadExReq accesses
system.l3.ReadExReq_mshr_miss_rate::cpu2.data     0.999780                       # mshr miss rate for ReadExReq accesses
system.l3.ReadExReq_mshr_miss_rate::cpu3.data     0.999868                       # mshr miss rate for ReadExReq accesses
system.l3.ReadExReq_mshr_miss_rate::total     0.999802                       # mshr miss rate for ReadExReq accesses
system.l3.ReadSharedReq_mshr_miss_rate::cpu0.inst     0.995362                       # mshr miss rate for ReadSharedReq accesses
system.l3.ReadSharedReq_mshr_miss_rate::cpu0.data     0.000736                       # mshr miss rate for ReadSharedReq accesses
system.l3.ReadSharedReq_mshr_miss_rate::cpu1.inst     0.995353                       # mshr miss rate for ReadSharedReq accesses
system.l3.ReadSharedReq_mshr_miss_rate::cpu1.data     0.000750                       # mshr miss rate for ReadSharedReq accesses
system.l3.ReadSharedReq_mshr_miss_rate::cpu2.inst     0.995349                       # mshr miss rate for ReadSharedReq accesses
system.l3.ReadSharedReq_mshr_miss_rate::cpu2.data     0.000732                       # mshr miss rate for ReadSharedReq accesses
system.l3.ReadSharedReq_mshr_miss_rate::cpu3.inst     0.995362                       # mshr miss rate for ReadSharedReq accesses
system.l3.ReadSharedReq_mshr_miss_rate::cpu3.data     0.000724                       # mshr miss rate for ReadSharedReq accesses
system.l3.ReadSharedReq_mshr_miss_rate::total     0.004843                       # mshr miss rate for ReadSharedReq accesses
system.l3.demand_mshr_miss_rate::cpu0.inst     0.995362                       # mshr miss rate for demand accesses
system.l3.demand_mshr_miss_rate::cpu0.data     0.081377                       # mshr miss rate for demand accesses
system.l3.demand_mshr_miss_rate::cpu1.inst     0.995353                       # mshr miss rate for demand accesses
system.l3.demand_mshr_miss_rate::cpu1.data     0.081239                       # mshr miss rate for demand accesses
system.l3.demand_mshr_miss_rate::cpu2.inst     0.995349                       # mshr miss rate for demand accesses
system.l3.demand_mshr_miss_rate::cpu2.data     0.081320                       # mshr miss rate for demand accesses
system.l3.demand_mshr_miss_rate::cpu3.inst     0.995362                       # mshr miss rate for demand accesses
system.l3.demand_mshr_miss_rate::cpu3.data     0.081293                       # mshr miss rate for demand accesses
system.l3.demand_mshr_miss_rate::total       0.084779                       # mshr miss rate for demand accesses
system.l3.overall_mshr_miss_rate::cpu0.inst     0.995362                       # mshr miss rate for overall accesses
system.l3.overall_mshr_miss_rate::cpu0.data     0.081377                       # mshr miss rate for overall accesses
system.l3.overall_mshr_miss_rate::cpu1.inst     0.995353                       # mshr miss rate for overall accesses
system.l3.overall_mshr_miss_rate::cpu1.data     0.081239                       # mshr miss rate for overall accesses
system.l3.overall_mshr_miss_rate::cpu2.inst     0.995349                       # mshr miss rate for overall accesses
system.l3.overall_mshr_miss_rate::cpu2.data     0.081320                       # mshr miss rate for overall accesses
system.l3.overall_mshr_miss_rate::cpu3.inst     0.995362                       # mshr miss rate for overall accesses
system.l3.overall_mshr_miss_rate::cpu3.data     0.081293                       # mshr miss rate for overall accesses
system.l3.overall_mshr_miss_rate::total      0.084779                       # mshr miss rate for overall accesses
system.l3.ReadExReq_avg_mshr_miss_latency::cpu0.data 95040.851089                       # average ReadExReq mshr miss latency
system.l3.ReadExReq_avg_mshr_miss_latency::cpu1.data 87610.978480                       # average ReadExReq mshr miss latency
system.l3.ReadExReq_avg_mshr_miss_latency::cpu2.data 89341.390094                       # average ReadExReq mshr miss latency
system.l3.ReadExReq_avg_mshr_miss_latency::cpu3.data 93395.224672                       # average ReadExReq mshr miss latency
system.l3.ReadExReq_avg_mshr_miss_latency::total 91347.167611                       # average ReadExReq mshr miss latency
system.l3.ReadSharedReq_avg_mshr_miss_latency::cpu0.inst 85432.403541                       # average ReadSharedReq mshr miss latency
system.l3.ReadSharedReq_avg_mshr_miss_latency::cpu0.data 97991.931937                       # average ReadSharedReq mshr miss latency
system.l3.ReadSharedReq_avg_mshr_miss_latency::cpu1.inst 89776.660131                       # average ReadSharedReq mshr miss latency
system.l3.ReadSharedReq_avg_mshr_miss_latency::cpu1.data 101832.328205                       # average ReadSharedReq mshr miss latency
system.l3.ReadSharedReq_avg_mshr_miss_latency::cpu2.inst 85231.982243                       # average ReadSharedReq mshr miss latency
system.l3.ReadSharedReq_avg_mshr_miss_latency::cpu2.data 101329.621053                       # average ReadSharedReq mshr miss latency
system.l3.ReadSharedReq_avg_mshr_miss_latency::cpu3.inst 87462.006524                       # average ReadSharedReq mshr miss latency
system.l3.ReadSharedReq_avg_mshr_miss_latency::cpu3.data 108005.595745                       # average ReadSharedReq mshr miss latency
system.l3.ReadSharedReq_avg_mshr_miss_latency::total 89288.491190                       # average ReadSharedReq mshr miss latency
system.l3.demand_avg_mshr_miss_latency::cpu0.inst 85432.403541                       # average overall mshr miss latency
system.l3.demand_avg_mshr_miss_latency::cpu0.data 95065.397378                       # average overall mshr miss latency
system.l3.demand_avg_mshr_miss_latency::cpu1.inst 89776.660131                       # average overall mshr miss latency
system.l3.demand_avg_mshr_miss_latency::cpu1.data 87731.739810                       # average overall mshr miss latency
system.l3.demand_avg_mshr_miss_latency::cpu2.inst 85231.982243                       # average overall mshr miss latency
system.l3.demand_avg_mshr_miss_latency::cpu2.data 89440.578558                       # average overall mshr miss latency
system.l3.demand_avg_mshr_miss_latency::cpu3.inst 87462.006524                       # average overall mshr miss latency
system.l3.demand_avg_mshr_miss_latency::cpu3.data 93514.861841                       # average overall mshr miss latency
system.l3.demand_avg_mshr_miss_latency::total 91239.005565                       # average overall mshr miss latency
system.l3.overall_avg_mshr_miss_latency::cpu0.inst 85432.403541                       # average overall mshr miss latency
system.l3.overall_avg_mshr_miss_latency::cpu0.data 95065.397378                       # average overall mshr miss latency
system.l3.overall_avg_mshr_miss_latency::cpu1.inst 89776.660131                       # average overall mshr miss latency
system.l3.overall_avg_mshr_miss_latency::cpu1.data 87731.739810                       # average overall mshr miss latency
system.l3.overall_avg_mshr_miss_latency::cpu2.inst 85231.982243                       # average overall mshr miss latency
system.l3.overall_avg_mshr_miss_latency::cpu2.data 89440.578558                       # average overall mshr miss latency
system.l3.overall_avg_mshr_miss_latency::cpu3.inst 87462.006524                       # average overall mshr miss latency
system.l3.overall_avg_mshr_miss_latency::cpu3.data 93514.861841                       # average overall mshr miss latency
system.l3.overall_avg_mshr_miss_latency::total 91239.005565                       # average overall mshr miss latency
system.membus.snoop_filter.tot_requests         96137                       # Total number of requests made to the snoop filter.
system.membus.snoop_filter.hit_single_requests            0                       # Number of requests hitting in the snoop filter with a single holder of the requested data.
system.membus.snoop_filter.hit_multi_requests            0                       # Number of requests hitting in the snoop filter with multiple (>1) holders of the requested data.
system.membus.snoop_filter.tot_snoops               0                       # Total number of snoops made to the snoop filter.
system.membus.snoop_filter.hit_single_snoops            0                       # Number of snoops hitting in the snoop filter with a single holder of the requested data.
system.membus.snoop_filter.hit_multi_snoops            0                       # Number of snoops hitting in the snoop filter with multiple (>1) holders of the requested data.
system.membus.pwrStateResidencyTicks::UNDEFINED  26628037974                       # Cumulative time (in ticks) in various power states
system.membus.trans_dist::ReadResp               5051                       # Transaction distribution
system.membus.trans_dist::ReadExReq             91086                       # Transaction distribution
system.membus.trans_dist::ReadExResp            91086                       # Transaction distribution
system.membus.trans_dist::ReadSharedReq          5051                       # Transaction distribution
system.membus.pkt_count_system.l3.mem_side::system.mem_ctrls0.port        96188                       # Packet count per connected master and slave (bytes)
system.membus.pkt_count_system.l3.mem_side::system.mem_ctrls1.port        96086                       # Packet count per connected master and slave (bytes)
system.membus.pkt_count_system.l3.mem_side::total       192274                       # Packet count per connected master and slave (bytes)
system.membus.pkt_count::total                 192274                       # Packet count per connected master and slave (bytes)
system.membus.pkt_size_system.l3.mem_side::system.mem_ctrls0.port      3078016                       # Cumulative packet size per connected master and slave (bytes)
system.membus.pkt_size_system.l3.mem_side::system.mem_ctrls1.port      3074752                       # Cumulative packet size per connected master and slave (bytes)
system.membus.pkt_size_system.l3.mem_side::total      6152768                       # Cumulative packet size per connected master and slave (bytes)
system.membus.pkt_size::total                 6152768                       # Cumulative packet size per connected master and slave (bytes)
system.membus.snoops                                0                       # Total snoops (count)
system.membus.snoopTraffic                          0                       # Total snoop traffic (bytes)
system.membus.snoop_fanout::samples             96137                       # Request fanout histogram
system.membus.snoop_fanout::mean                    0                       # Request fanout histogram
system.membus.snoop_fanout::stdev                   0                       # Request fanout histogram
system.membus.snoop_fanout::underflows              0      0.00%      0.00% # Request fanout histogram
system.membus.snoop_fanout::0                   96137    100.00%    100.00% # Request fanout histogram
system.membus.snoop_fanout::1                       0      0.00%    100.00% # Request fanout histogram
system.membus.snoop_fanout::overflows               0      0.00%    100.00% # Request fanout histogram
system.membus.snoop_fanout::min_value               0                       # Request fanout histogram
system.membus.snoop_fanout::max_value               0                       # Request fanout histogram
system.membus.snoop_fanout::total               96137                       # Request fanout histogram
system.membus.reqLayer8.occupancy            72435432                       # Layer occupancy (ticks)
system.membus.reqLayer8.utilization               0.3                       # Layer utilization (%)
system.membus.reqLayer9.occupancy            72300302                       # Layer occupancy (ticks)
system.membus.reqLayer9.utilization               0.3                       # Layer utilization (%)
system.membus.respLayer1.occupancy          521797366                       # Layer occupancy (ticks)
system.membus.respLayer1.utilization              2.0                       # Layer utilization (%)
system.tol3bus.snoop_filter.tot_requests      2249550                       # Total number of requests made to the snoop filter.
system.tol3bus.snoop_filter.hit_single_requests      1115577                       # Number of requests hitting in the snoop filter with a single holder of the requested data.
system.tol3bus.snoop_filter.hit_multi_requests            0                       # Number of requests hitting in the snoop filter with multiple (>1) holders of the requested data.
system.tol3bus.snoop_filter.tot_snoops              1                       # Total number of snoops made to the snoop filter.
system.tol3bus.snoop_filter.hit_single_snoops            1                       # Number of snoops hitting in the snoop filter with a single holder of the requested data.
system.tol3bus.snoop_filter.hit_multi_snoops            0                       # Number of snoops hitting in the snoop filter with multiple (>1) holders of the requested data.
system.tol3bus.pwrStateResidencyTicks::UNDEFINED  26628037974                       # Cumulative time (in ticks) in various power states
system.tol3bus.trans_dist::ReadResp           1042869                       # Transaction distribution
system.tol3bus.trans_dist::WritebackDirty      1112732                       # Transaction distribution
system.tol3bus.trans_dist::CleanEvict            2846                       # Transaction distribution
system.tol3bus.trans_dist::ReadExReq            91104                       # Transaction distribution
system.tol3bus.trans_dist::ReadExResp           91104                       # Transaction distribution
system.tol3bus.trans_dist::ReadSharedReq      1042869                       # Transaction distribution
system.tol3bus.pkt_count_system.cpu0.l2.mem_side::system.l3.cpu_side       845176                       # Packet count per connected master and slave (bytes)
system.tol3bus.pkt_count_system.cpu1.l2.mem_side::system.l3.cpu_side       846641                       # Packet count per connected master and slave (bytes)
system.tol3bus.pkt_count_system.cpu2.l2.mem_side::system.l3.cpu_side       845801                       # Packet count per connected master and slave (bytes)
system.tol3bus.pkt_count_system.cpu3.l2.mem_side::system.l3.cpu_side       845905                       # Packet count per connected master and slave (bytes)
system.tol3bus.pkt_count::total               3383523                       # Packet count per connected master and slave (bytes)
system.tol3bus.pkt_size_system.cpu0.l2.mem_side::system.l3.cpu_side     35917184                       # Cumulative packet size per connected master and slave (bytes)
system.tol3bus.pkt_size_system.cpu1.l2.mem_side::system.l3.cpu_side     35979584                       # Cumulative packet size per connected master and slave (bytes)
system.tol3bus.pkt_size_system.cpu2.l2.mem_side::system.l3.cpu_side     35944000                       # Cumulative packet size per connected master and slave (bytes)
system.tol3bus.pkt_size_system.cpu3.l2.mem_side::system.l3.cpu_side     35948352                       # Cumulative packet size per connected master and slave (bytes)
system.tol3bus.pkt_size::total              143789120                       # Cumulative packet size per connected master and slave (bytes)
system.tol3bus.snoops                               1                       # Total snoops (count)
system.tol3bus.snoopTraffic                         0                       # Total snoop traffic (bytes)
system.tol3bus.snoop_fanout::samples          1133974                       # Request fanout histogram
system.tol3bus.snoop_fanout::mean            0.000001                       # Request fanout histogram
system.tol3bus.snoop_fanout::stdev           0.000939                       # Request fanout histogram
system.tol3bus.snoop_fanout::underflows             0      0.00%      0.00% # Request fanout histogram
system.tol3bus.snoop_fanout::0                1133973    100.00%    100.00% # Request fanout histogram
system.tol3bus.snoop_fanout::1                      1      0.00%    100.00% # Request fanout histogram
system.tol3bus.snoop_fanout::2                      0      0.00%    100.00% # Request fanout histogram
system.tol3bus.snoop_fanout::3                      0      0.00%    100.00% # Request fanout histogram
system.tol3bus.snoop_fanout::4                      0      0.00%    100.00% # Request fanout histogram
system.tol3bus.snoop_fanout::overflows              0      0.00%    100.00% # Request fanout histogram
system.tol3bus.snoop_fanout::min_value              0                       # Request fanout histogram
system.tol3bus.snoop_fanout::max_value              1                       # Request fanout histogram
system.tol3bus.snoop_fanout::total            1133974                       # Request fanout histogram
system.tol3bus.reqLayer0.occupancy         1119639906                       # Layer occupancy (ticks)
system.tol3bus.reqLayer0.utilization              4.2                       # Layer utilization (%)
system.tol3bus.respLayer0.occupancy         188698300                       # Layer occupancy (ticks)
system.tol3bus.respLayer0.utilization             0.7                       # Layer utilization (%)
system.tol3bus.respLayer1.occupancy         189005382                       # Layer occupancy (ticks)
system.tol3bus.respLayer1.utilization             0.7                       # Layer utilization (%)
system.tol3bus.respLayer2.occupancy         188826870                       # Layer occupancy (ticks)
system.tol3bus.respLayer2.utilization             0.7                       # Layer utilization (%)
system.tol3bus.respLayer3.occupancy         188863458                       # Layer occupancy (ticks)
system.tol3bus.respLayer3.utilization             0.7                       # Layer utilization (%)

---------- End Simulation Statistics   ----------
