
---------- Begin Simulation Statistics ----------
sim_seconds                                  0.026620                       # Number of seconds simulated
sim_ticks                                 26620007679                       # Number of ticks simulated
final_tick                                26620007679                       # Number of ticks from beginning of simulation (restored from checkpoints and never reset)
sim_freq                                 1000000000000                       # Frequency of simulated ticks
host_inst_rate                                 169482                       # Simulator instruction rate (inst/s)
host_op_rate                                   250591                       # Simulator op (including micro ops) rate (op/s)
host_tick_rate                               11292477                       # Simulator tick rate (ticks/s)
host_mem_usage                                8678196                       # Number of bytes of host memory used
host_seconds                                  2357.32                       # Real time elapsed on the host
sim_insts                                   399524781                       # Number of instructions simulated
sim_ops                                     590724180                       # Number of ops (including micro ops) simulated
system.voltage_domain.voltage                       1                       # Voltage in Volts
system.clk_domain.clock                          1000                       # Clock period in ticks
system.mem_ctrls0.pwrStateResidencyTicks::UNDEFINED  26620007679                       # Cumulative time (in ticks) in various power states
system.mem_ctrls0.bytes_read::cpu0.inst         33920                       # Number of bytes read from this memory
system.mem_ctrls0.bytes_read::cpu0.data        734464                       # Number of bytes read from this memory
system.mem_ctrls0.bytes_read::cpu1.inst         34688                       # Number of bytes read from this memory
system.mem_ctrls0.bytes_read::cpu1.data        735232                       # Number of bytes read from this memory
system.mem_ctrls0.bytes_read::cpu2.inst         34560                       # Number of bytes read from this memory
system.mem_ctrls0.bytes_read::cpu2.data        735424                       # Number of bytes read from this memory
system.mem_ctrls0.bytes_read::cpu3.inst         34624                       # Number of bytes read from this memory
system.mem_ctrls0.bytes_read::cpu3.data        735232                       # Number of bytes read from this memory
system.mem_ctrls0.bytes_read::total           3078144                       # Number of bytes read from this memory
system.mem_ctrls0.bytes_inst_read::cpu0.inst        33920                       # Number of instructions bytes read from this memory
system.mem_ctrls0.bytes_inst_read::cpu1.inst        34688                       # Number of instructions bytes read from this memory
system.mem_ctrls0.bytes_inst_read::cpu2.inst        34560                       # Number of instructions bytes read from this memory
system.mem_ctrls0.bytes_inst_read::cpu3.inst        34624                       # Number of instructions bytes read from this memory
system.mem_ctrls0.bytes_inst_read::total       137792                       # Number of instructions bytes read from this memory
system.mem_ctrls0.num_reads::cpu0.inst            530                       # Number of read requests responded to by this memory
system.mem_ctrls0.num_reads::cpu0.data          11476                       # Number of read requests responded to by this memory
system.mem_ctrls0.num_reads::cpu1.inst            542                       # Number of read requests responded to by this memory
system.mem_ctrls0.num_reads::cpu1.data          11488                       # Number of read requests responded to by this memory
system.mem_ctrls0.num_reads::cpu2.inst            540                       # Number of read requests responded to by this memory
system.mem_ctrls0.num_reads::cpu2.data          11491                       # Number of read requests responded to by this memory
system.mem_ctrls0.num_reads::cpu3.inst            541                       # Number of read requests responded to by this memory
system.mem_ctrls0.num_reads::cpu3.data          11488                       # Number of read requests responded to by this memory
system.mem_ctrls0.num_reads::total              48096                       # Number of read requests responded to by this memory
system.mem_ctrls0.bw_read::cpu0.inst          1274230                       # Total read bandwidth from this memory (bytes/s)
system.mem_ctrls0.bw_read::cpu0.data         27590676                       # Total read bandwidth from this memory (bytes/s)
system.mem_ctrls0.bw_read::cpu1.inst          1303080                       # Total read bandwidth from this memory (bytes/s)
system.mem_ctrls0.bw_read::cpu1.data         27619526                       # Total read bandwidth from this memory (bytes/s)
system.mem_ctrls0.bw_read::cpu2.inst          1298272                       # Total read bandwidth from this memory (bytes/s)
system.mem_ctrls0.bw_read::cpu2.data         27626739                       # Total read bandwidth from this memory (bytes/s)
system.mem_ctrls0.bw_read::cpu3.inst          1300676                       # Total read bandwidth from this memory (bytes/s)
system.mem_ctrls0.bw_read::cpu3.data         27619526                       # Total read bandwidth from this memory (bytes/s)
system.mem_ctrls0.bw_read::total            115632724                       # Total read bandwidth from this memory (bytes/s)
system.mem_ctrls0.bw_inst_read::cpu0.inst      1274230                       # Instruction read bandwidth from this memory (bytes/s)
system.mem_ctrls0.bw_inst_read::cpu1.inst      1303080                       # Instruction read bandwidth from this memory (bytes/s)
system.mem_ctrls0.bw_inst_read::cpu2.inst      1298272                       # Instruction read bandwidth from this memory (bytes/s)
system.mem_ctrls0.bw_inst_read::cpu3.inst      1300676                       # Instruction read bandwidth from this memory (bytes/s)
system.mem_ctrls0.bw_inst_read::total         5176257                       # Instruction read bandwidth from this memory (bytes/s)
system.mem_ctrls0.bw_total::cpu0.inst         1274230                       # Total bandwidth to/from this memory (bytes/s)
system.mem_ctrls0.bw_total::cpu0.data        27590676                       # Total bandwidth to/from this memory (bytes/s)
system.mem_ctrls0.bw_total::cpu1.inst         1303080                       # Total bandwidth to/from this memory (bytes/s)
system.mem_ctrls0.bw_total::cpu1.data        27619526                       # Total bandwidth to/from this memory (bytes/s)
system.mem_ctrls0.bw_total::cpu2.inst         1298272                       # Total bandwidth to/from this memory (bytes/s)
system.mem_ctrls0.bw_total::cpu2.data        27626739                       # Total bandwidth to/from this memory (bytes/s)
system.mem_ctrls0.bw_total::cpu3.inst         1300676                       # Total bandwidth to/from this memory (bytes/s)
system.mem_ctrls0.bw_total::cpu3.data        27619526                       # Total bandwidth to/from this memory (bytes/s)
system.mem_ctrls0.bw_total::total           115632724                       # Total bandwidth to/from this memory (bytes/s)
system.mem_ctrls0.readReqs                      48096                       # Number of read requests accepted
system.mem_ctrls0.writeReqs                         0                       # Number of write requests accepted
system.mem_ctrls0.readBursts                    48096                       # Number of DRAM read bursts, including those serviced by the write queue
system.mem_ctrls0.writeBursts                       0                       # Number of DRAM write bursts, including those merged in the write queue
system.mem_ctrls0.bytesReadDRAM               3078144                       # Total number of bytes read from DRAM
system.mem_ctrls0.bytesReadWrQ                      0                       # Total number of bytes read from write queue
system.mem_ctrls0.bytesWritten                      0                       # Total number of bytes written to DRAM
system.mem_ctrls0.bytesReadSys                3078144                       # Total read bytes from the system interface side
system.mem_ctrls0.bytesWrittenSys                   0                       # Total written bytes from the system interface side
system.mem_ctrls0.servicedByWrQ                     0                       # Number of DRAM read bursts serviced by the write queue
system.mem_ctrls0.mergedWrBursts                    0                       # Number of DRAM write bursts merged with an existing one
system.mem_ctrls0.neitherReadNorWriteReqs            0                       # Number of requests that are neither read nor write
system.mem_ctrls0.perBankRdBursts::0             2803                       # Per bank write bursts
system.mem_ctrls0.perBankRdBursts::1             3068                       # Per bank write bursts
system.mem_ctrls0.perBankRdBursts::2             3124                       # Per bank write bursts
system.mem_ctrls0.perBankRdBursts::3             3210                       # Per bank write bursts
system.mem_ctrls0.perBankRdBursts::4             3223                       # Per bank write bursts
system.mem_ctrls0.perBankRdBursts::5             3285                       # Per bank write bursts
system.mem_ctrls0.perBankRdBursts::6             3343                       # Per bank write bursts
system.mem_ctrls0.perBankRdBursts::7             3263                       # Per bank write bursts
system.mem_ctrls0.perBankRdBursts::8             3276                       # Per bank write bursts
system.mem_ctrls0.perBankRdBursts::9             2951                       # Per bank write bursts
system.mem_ctrls0.perBankRdBursts::10            2820                       # Per bank write bursts
system.mem_ctrls0.perBankRdBursts::11            2818                       # Per bank write bursts
system.mem_ctrls0.perBankRdBursts::12            2792                       # Per bank write bursts
system.mem_ctrls0.perBankRdBursts::13            2741                       # Per bank write bursts
system.mem_ctrls0.perBankRdBursts::14            2677                       # Per bank write bursts
system.mem_ctrls0.perBankRdBursts::15            2702                       # Per bank write bursts
system.mem_ctrls0.perBankWrBursts::0                0                       # Per bank write bursts
system.mem_ctrls0.perBankWrBursts::1                0                       # Per bank write bursts
system.mem_ctrls0.perBankWrBursts::2                0                       # Per bank write bursts
system.mem_ctrls0.perBankWrBursts::3                0                       # Per bank write bursts
system.mem_ctrls0.perBankWrBursts::4                0                       # Per bank write bursts
system.mem_ctrls0.perBankWrBursts::5                0                       # Per bank write bursts
system.mem_ctrls0.perBankWrBursts::6                0                       # Per bank write bursts
system.mem_ctrls0.perBankWrBursts::7                0                       # Per bank write bursts
system.mem_ctrls0.perBankWrBursts::8                0                       # Per bank write bursts
system.mem_ctrls0.perBankWrBursts::9                0                       # Per bank write bursts
system.mem_ctrls0.perBankWrBursts::10               0                       # Per bank write bursts
system.mem_ctrls0.perBankWrBursts::11               0                       # Per bank write bursts
system.mem_ctrls0.perBankWrBursts::12               0                       # Per bank write bursts
system.mem_ctrls0.perBankWrBursts::13               0                       # Per bank write bursts
system.mem_ctrls0.perBankWrBursts::14               0                       # Per bank write bursts
system.mem_ctrls0.perBankWrBursts::15               0                       # Per bank write bursts
system.mem_ctrls0.numRdRetry                        0                       # Number of times read queue was full causing retry
system.mem_ctrls0.numWrRetry                        0                       # Number of times write queue was full causing retry
system.mem_ctrls0.totGap                  15499117368                       # Total gap between requests
system.mem_ctrls0.readPktSize::0                    0                       # Read request sizes (log2)
system.mem_ctrls0.readPktSize::1                    0                       # Read request sizes (log2)
system.mem_ctrls0.readPktSize::2                    0                       # Read request sizes (log2)
system.mem_ctrls0.readPktSize::3                    0                       # Read request sizes (log2)
system.mem_ctrls0.readPktSize::4                    0                       # Read request sizes (log2)
system.mem_ctrls0.readPktSize::5                    0                       # Read request sizes (log2)
system.mem_ctrls0.readPktSize::6                48096                       # Read request sizes (log2)
system.mem_ctrls0.writePktSize::0                   0                       # Write request sizes (log2)
system.mem_ctrls0.writePktSize::1                   0                       # Write request sizes (log2)
system.mem_ctrls0.writePktSize::2                   0                       # Write request sizes (log2)
system.mem_ctrls0.writePktSize::3                   0                       # Write request sizes (log2)
system.mem_ctrls0.writePktSize::4                   0                       # Write request sizes (log2)
system.mem_ctrls0.writePktSize::5                   0                       # Write request sizes (log2)
system.mem_ctrls0.writePktSize::6                   0                       # Write request sizes (log2)
system.mem_ctrls0.rdQLenPdf::0                  26831                       # What read queue length does an incoming req see
system.mem_ctrls0.rdQLenPdf::1                  14737                       # What read queue length does an incoming req see
system.mem_ctrls0.rdQLenPdf::2                   5565                       # What read queue length does an incoming req see
system.mem_ctrls0.rdQLenPdf::3                    797                       # What read queue length does an incoming req see
system.mem_ctrls0.rdQLenPdf::4                    109                       # What read queue length does an incoming req see
system.mem_ctrls0.rdQLenPdf::5                     42                       # What read queue length does an incoming req see
system.mem_ctrls0.rdQLenPdf::6                     11                       # What read queue length does an incoming req see
system.mem_ctrls0.rdQLenPdf::7                      3                       # What read queue length does an incoming req see
system.mem_ctrls0.rdQLenPdf::8                      1                       # What read queue length does an incoming req see
system.mem_ctrls0.rdQLenPdf::9                      0                       # What read queue length does an incoming req see
system.mem_ctrls0.rdQLenPdf::10                     0                       # What read queue length does an incoming req see
system.mem_ctrls0.rdQLenPdf::11                     0                       # What read queue length does an incoming req see
system.mem_ctrls0.rdQLenPdf::12                     0                       # What read queue length does an incoming req see
system.mem_ctrls0.rdQLenPdf::13                     0                       # What read queue length does an incoming req see
system.mem_ctrls0.rdQLenPdf::14                     0                       # What read queue length does an incoming req see
system.mem_ctrls0.rdQLenPdf::15                     0                       # What read queue length does an incoming req see
system.mem_ctrls0.rdQLenPdf::16                     0                       # What read queue length does an incoming req see
system.mem_ctrls0.rdQLenPdf::17                     0                       # What read queue length does an incoming req see
system.mem_ctrls0.rdQLenPdf::18                     0                       # What read queue length does an incoming req see
system.mem_ctrls0.rdQLenPdf::19                     0                       # What read queue length does an incoming req see
system.mem_ctrls0.rdQLenPdf::20                     0                       # What read queue length does an incoming req see
system.mem_ctrls0.rdQLenPdf::21                     0                       # What read queue length does an incoming req see
system.mem_ctrls0.rdQLenPdf::22                     0                       # What read queue length does an incoming req see
system.mem_ctrls0.rdQLenPdf::23                     0                       # What read queue length does an incoming req see
system.mem_ctrls0.rdQLenPdf::24                     0                       # What read queue length does an incoming req see
system.mem_ctrls0.rdQLenPdf::25                     0                       # What read queue length does an incoming req see
system.mem_ctrls0.rdQLenPdf::26                     0                       # What read queue length does an incoming req see
system.mem_ctrls0.rdQLenPdf::27                     0                       # What read queue length does an incoming req see
system.mem_ctrls0.rdQLenPdf::28                     0                       # What read queue length does an incoming req see
system.mem_ctrls0.rdQLenPdf::29                     0                       # What read queue length does an incoming req see
system.mem_ctrls0.rdQLenPdf::30                     0                       # What read queue length does an incoming req see
system.mem_ctrls0.rdQLenPdf::31                     0                       # What read queue length does an incoming req see
system.mem_ctrls0.wrQLenPdf::0                      0                       # What write queue length does an incoming req see
system.mem_ctrls0.wrQLenPdf::1                      0                       # What write queue length does an incoming req see
system.mem_ctrls0.wrQLenPdf::2                      0                       # What write queue length does an incoming req see
system.mem_ctrls0.wrQLenPdf::3                      0                       # What write queue length does an incoming req see
system.mem_ctrls0.wrQLenPdf::4                      0                       # What write queue length does an incoming req see
system.mem_ctrls0.wrQLenPdf::5                      0                       # What write queue length does an incoming req see
system.mem_ctrls0.wrQLenPdf::6                      0                       # What write queue length does an incoming req see
system.mem_ctrls0.wrQLenPdf::7                      0                       # What write queue length does an incoming req see
system.mem_ctrls0.wrQLenPdf::8                      0                       # What write queue length does an incoming req see
system.mem_ctrls0.wrQLenPdf::9                      0                       # What write queue length does an incoming req see
system.mem_ctrls0.wrQLenPdf::10                     0                       # What write queue length does an incoming req see
system.mem_ctrls0.wrQLenPdf::11                     0                       # What write queue length does an incoming req see
system.mem_ctrls0.wrQLenPdf::12                     0                       # What write queue length does an incoming req see
system.mem_ctrls0.wrQLenPdf::13                     0                       # What write queue length does an incoming req see
system.mem_ctrls0.wrQLenPdf::14                     0                       # What write queue length does an incoming req see
system.mem_ctrls0.wrQLenPdf::15                     0                       # What write queue length does an incoming req see
system.mem_ctrls0.wrQLenPdf::16                     0                       # What write queue length does an incoming req see
system.mem_ctrls0.wrQLenPdf::17                     0                       # What write queue length does an incoming req see
system.mem_ctrls0.wrQLenPdf::18                     0                       # What write queue length does an incoming req see
system.mem_ctrls0.wrQLenPdf::19                     0                       # What write queue length does an incoming req see
system.mem_ctrls0.wrQLenPdf::20                     0                       # What write queue length does an incoming req see
system.mem_ctrls0.wrQLenPdf::21                     0                       # What write queue length does an incoming req see
system.mem_ctrls0.wrQLenPdf::22                     0                       # What write queue length does an incoming req see
system.mem_ctrls0.wrQLenPdf::23                     0                       # What write queue length does an incoming req see
system.mem_ctrls0.wrQLenPdf::24                     0                       # What write queue length does an incoming req see
system.mem_ctrls0.wrQLenPdf::25                     0                       # What write queue length does an incoming req see
system.mem_ctrls0.wrQLenPdf::26                     0                       # What write queue length does an incoming req see
system.mem_ctrls0.wrQLenPdf::27                     0                       # What write queue length does an incoming req see
system.mem_ctrls0.wrQLenPdf::28                     0                       # What write queue length does an incoming req see
system.mem_ctrls0.wrQLenPdf::29                     0                       # What write queue length does an incoming req see
system.mem_ctrls0.wrQLenPdf::30                     0                       # What write queue length does an incoming req see
system.mem_ctrls0.wrQLenPdf::31                     0                       # What write queue length does an incoming req see
system.mem_ctrls0.wrQLenPdf::32                     0                       # What write queue length does an incoming req see
system.mem_ctrls0.wrQLenPdf::33                     0                       # What write queue length does an incoming req see
system.mem_ctrls0.wrQLenPdf::34                     0                       # What write queue length does an incoming req see
system.mem_ctrls0.wrQLenPdf::35                     0                       # What write queue length does an incoming req see
system.mem_ctrls0.wrQLenPdf::36                     0                       # What write queue length does an incoming req see
system.mem_ctrls0.wrQLenPdf::37                     0                       # What write queue length does an incoming req see
system.mem_ctrls0.wrQLenPdf::38                     0                       # What write queue length does an incoming req see
system.mem_ctrls0.wrQLenPdf::39                     0                       # What write queue length does an incoming req see
system.mem_ctrls0.wrQLenPdf::40                     0                       # What write queue length does an incoming req see
system.mem_ctrls0.wrQLenPdf::41                     0                       # What write queue length does an incoming req see
system.mem_ctrls0.wrQLenPdf::42                     0                       # What write queue length does an incoming req see
system.mem_ctrls0.wrQLenPdf::43                     0                       # What write queue length does an incoming req see
system.mem_ctrls0.wrQLenPdf::44                     0                       # What write queue length does an incoming req see
system.mem_ctrls0.wrQLenPdf::45                     0                       # What write queue length does an incoming req see
system.mem_ctrls0.wrQLenPdf::46                     0                       # What write queue length does an incoming req see
system.mem_ctrls0.wrQLenPdf::47                     0                       # What write queue length does an incoming req see
system.mem_ctrls0.wrQLenPdf::48                     0                       # What write queue length does an incoming req see
system.mem_ctrls0.wrQLenPdf::49                     0                       # What write queue length does an incoming req see
system.mem_ctrls0.wrQLenPdf::50                     0                       # What write queue length does an incoming req see
system.mem_ctrls0.wrQLenPdf::51                     0                       # What write queue length does an incoming req see
system.mem_ctrls0.wrQLenPdf::52                     0                       # What write queue length does an incoming req see
system.mem_ctrls0.wrQLenPdf::53                     0                       # What write queue length does an incoming req see
system.mem_ctrls0.wrQLenPdf::54                     0                       # What write queue length does an incoming req see
system.mem_ctrls0.wrQLenPdf::55                     0                       # What write queue length does an incoming req see
system.mem_ctrls0.wrQLenPdf::56                     0                       # What write queue length does an incoming req see
system.mem_ctrls0.wrQLenPdf::57                     0                       # What write queue length does an incoming req see
system.mem_ctrls0.wrQLenPdf::58                     0                       # What write queue length does an incoming req see
system.mem_ctrls0.wrQLenPdf::59                     0                       # What write queue length does an incoming req see
system.mem_ctrls0.wrQLenPdf::60                     0                       # What write queue length does an incoming req see
system.mem_ctrls0.wrQLenPdf::61                     0                       # What write queue length does an incoming req see
system.mem_ctrls0.wrQLenPdf::62                     0                       # What write queue length does an incoming req see
system.mem_ctrls0.wrQLenPdf::63                     0                       # What write queue length does an incoming req see
system.mem_ctrls0.bytesPerActivate::samples        24834                       # Bytes accessed per row activation
system.mem_ctrls0.bytesPerActivate::mean   123.948780                       # Bytes accessed per row activation
system.mem_ctrls0.bytesPerActivate::gmean    88.038626                       # Bytes accessed per row activation
system.mem_ctrls0.bytesPerActivate::stdev   172.807599                       # Bytes accessed per row activation
system.mem_ctrls0.bytesPerActivate::0-127        17963     72.33%     72.33% # Bytes accessed per row activation
system.mem_ctrls0.bytesPerActivate::128-255         4823     19.42%     91.75% # Bytes accessed per row activation
system.mem_ctrls0.bytesPerActivate::256-383          226      0.91%     92.66% # Bytes accessed per row activation
system.mem_ctrls0.bytesPerActivate::384-511          416      1.68%     94.34% # Bytes accessed per row activation
system.mem_ctrls0.bytesPerActivate::512-639          580      2.34%     96.67% # Bytes accessed per row activation
system.mem_ctrls0.bytesPerActivate::640-767          225      0.91%     97.58% # Bytes accessed per row activation
system.mem_ctrls0.bytesPerActivate::768-895           39      0.16%     97.74% # Bytes accessed per row activation
system.mem_ctrls0.bytesPerActivate::896-1023           24      0.10%     97.83% # Bytes accessed per row activation
system.mem_ctrls0.bytesPerActivate::1024-1151          538      2.17%    100.00% # Bytes accessed per row activation
system.mem_ctrls0.bytesPerActivate::total        24834                       # Bytes accessed per row activation
system.mem_ctrls0.totQLat                  1381479495                       # Total ticks spent queuing
system.mem_ctrls0.totMemAccLat             2283279495                       # Total ticks spent from burst creation until serviced by the DRAM
system.mem_ctrls0.totBusLat                 240480000                       # Total ticks spent in databus transfers
system.mem_ctrls0.avgQLat                    28723.38                       # Average queueing delay per DRAM burst
system.mem_ctrls0.avgBusLat                   5000.00                       # Average bus latency per DRAM burst
system.mem_ctrls0.avgMemAccLat               47473.38                       # Average memory access latency per DRAM burst
system.mem_ctrls0.avgRdBW                      115.63                       # Average DRAM read bandwidth in MiByte/s
system.mem_ctrls0.avgWrBW                        0.00                       # Average achieved write bandwidth in MiByte/s
system.mem_ctrls0.avgRdBWSys                   115.63                       # Average system read bandwidth in MiByte/s
system.mem_ctrls0.avgWrBWSys                     0.00                       # Average system write bandwidth in MiByte/s
system.mem_ctrls0.peakBW                     12800.00                       # Theoretical peak bandwidth in MiByte/s
system.mem_ctrls0.busUtil                        0.90                       # Data bus utilization in percentage
system.mem_ctrls0.busUtilRead                    0.90                       # Data bus utilization in percentage for reads
system.mem_ctrls0.busUtilWrite                   0.00                       # Data bus utilization in percentage for writes
system.mem_ctrls0.avgRdQLen                      1.17                       # Average read queue length when enqueuing
system.mem_ctrls0.avgWrQLen                      0.00                       # Average write queue length when enqueuing
system.mem_ctrls0.readRowHits                   23262                       # Number of row buffer hits during reads
system.mem_ctrls0.writeRowHits                      0                       # Number of row buffer hits during writes
system.mem_ctrls0.readRowHitRate                48.37                       # Row buffer hit rate for reads
system.mem_ctrls0.writeRowHitRate                 nan                       # Row buffer hit rate for writes
system.mem_ctrls0.avgGap                    322253.77                       # Average gap between requests
system.mem_ctrls0.pageHitRate                   48.37                       # Row buffer hit rate, read and write combined
system.mem_ctrls0_0.actEnergy                94754940                       # Energy for activate commands per rank (pJ)
system.mem_ctrls0_0.preEnergy                50363445                       # Energy for precharge commands per rank (pJ)
system.mem_ctrls0_0.readEnergy              180777660                       # Energy for read commands per rank (pJ)
system.mem_ctrls0_0.writeEnergy                     0                       # Energy for write commands per rank (pJ)
system.mem_ctrls0_0.refreshEnergy        316539600.000000                       # Energy for refresh commands per rank (pJ)
system.mem_ctrls0_0.actBackEnergy           428341890                       # Energy for active background per rank (pJ)
system.mem_ctrls0_0.preBackEnergy            19039200                       # Energy for precharge background per rank (pJ)
system.mem_ctrls0_0.actPowerDownEnergy     1286269980                       # Energy for active power-down per rank (pJ)
system.mem_ctrls0_0.prePowerDownEnergy       54715680                       # Energy for precharge power-down per rank (pJ)
system.mem_ctrls0_0.selfRefreshEnergy      5444695920                       # Energy for self refresh per rank (pJ)
system.mem_ctrls0_0.totalEnergy            7875498315                       # Total energy per rank (pJ)
system.mem_ctrls0_0.averagePower           295.848825                       # Core power per rank (mW)
system.mem_ctrls0_0.totalIdleTime         14524354635                       # Total Idle time Per DRAM Rank
system.mem_ctrls0_0.memoryStateTime::IDLE      5031233                       # Time in different power states
system.mem_ctrls0_0.memoryStateTime::REF    133954000                       # Time in different power states
system.mem_ctrls0_0.memoryStateTime::SREF  22667824929                       # Time in different power states
system.mem_ctrls0_0.memoryStateTime::PRE_PDN    142455820                       # Time in different power states
system.mem_ctrls0_0.memoryStateTime::ACT    849757263                       # Time in different power states
system.mem_ctrls0_0.memoryStateTime::ACT_PDN   2820984434                       # Time in different power states
system.mem_ctrls0_1.actEnergy                82559820                       # Energy for activate commands per rank (pJ)
system.mem_ctrls0_1.preEnergy                43881585                       # Energy for precharge commands per rank (pJ)
system.mem_ctrls0_1.readEnergy              162627780                       # Energy for read commands per rank (pJ)
system.mem_ctrls0_1.writeEnergy                     0                       # Energy for write commands per rank (pJ)
system.mem_ctrls0_1.refreshEnergy        288266160.000000                       # Energy for refresh commands per rank (pJ)
system.mem_ctrls0_1.actBackEnergy           388073100                       # Energy for active background per rank (pJ)
system.mem_ctrls0_1.preBackEnergy            16077600                       # Energy for precharge background per rank (pJ)
system.mem_ctrls0_1.actPowerDownEnergy     1157110260                       # Energy for active power-down per rank (pJ)
system.mem_ctrls0_1.prePowerDownEnergy       54464160                       # Energy for precharge power-down per rank (pJ)
system.mem_ctrls0_1.selfRefreshEnergy      5537533740                       # Energy for self refresh per rank (pJ)
system.mem_ctrls0_1.totalEnergy            7730594205                       # Total energy per rank (pJ)
system.mem_ctrls0_1.averagePower           290.405397                       # Core power per rank (mW)
system.mem_ctrls0_1.totalIdleTime         14613615446                       # Total Idle time Per DRAM Rank
system.mem_ctrls0_1.memoryStateTime::IDLE      5387577                       # Time in different power states
system.mem_ctrls0_1.memoryStateTime::REF    122012000                       # Time in different power states
system.mem_ctrls0_1.memoryStateTime::SREF  23047743179                       # Time in different power states
system.mem_ctrls0_1.memoryStateTime::PRE_PDN    141874124                       # Time in different power states
system.mem_ctrls0_1.memoryStateTime::ACT    765632187                       # Time in different power states
system.mem_ctrls0_1.memoryStateTime::ACT_PDN   2537358612                       # Time in different power states
system.mem_ctrls1.pwrStateResidencyTicks::UNDEFINED  26620007679                       # Cumulative time (in ticks) in various power states
system.mem_ctrls1.bytes_read::cpu0.inst         34752                       # Number of bytes read from this memory
system.mem_ctrls1.bytes_read::cpu0.data        735168                       # Number of bytes read from this memory
system.mem_ctrls1.bytes_read::cpu1.inst         33856                       # Number of bytes read from this memory
system.mem_ctrls1.bytes_read::cpu1.data        734464                       # Number of bytes read from this memory
system.mem_ctrls1.bytes_read::cpu2.inst         34176                       # Number of bytes read from this memory
system.mem_ctrls1.bytes_read::cpu2.data        734272                       # Number of bytes read from this memory
system.mem_ctrls1.bytes_read::cpu3.inst         34048                       # Number of bytes read from this memory
system.mem_ctrls1.bytes_read::cpu3.data        734144                       # Number of bytes read from this memory
system.mem_ctrls1.bytes_read::total           3074880                       # Number of bytes read from this memory
system.mem_ctrls1.bytes_inst_read::cpu0.inst        34752                       # Number of instructions bytes read from this memory
system.mem_ctrls1.bytes_inst_read::cpu1.inst        33856                       # Number of instructions bytes read from this memory
system.mem_ctrls1.bytes_inst_read::cpu2.inst        34176                       # Number of instructions bytes read from this memory
system.mem_ctrls1.bytes_inst_read::cpu3.inst        34048                       # Number of instructions bytes read from this memory
system.mem_ctrls1.bytes_inst_read::total       136832                       # Number of instructions bytes read from this memory
system.mem_ctrls1.num_reads::cpu0.inst            543                       # Number of read requests responded to by this memory
system.mem_ctrls1.num_reads::cpu0.data          11487                       # Number of read requests responded to by this memory
system.mem_ctrls1.num_reads::cpu1.inst            529                       # Number of read requests responded to by this memory
system.mem_ctrls1.num_reads::cpu1.data          11476                       # Number of read requests responded to by this memory
system.mem_ctrls1.num_reads::cpu2.inst            534                       # Number of read requests responded to by this memory
system.mem_ctrls1.num_reads::cpu2.data          11473                       # Number of read requests responded to by this memory
system.mem_ctrls1.num_reads::cpu3.inst            532                       # Number of read requests responded to by this memory
system.mem_ctrls1.num_reads::cpu3.data          11471                       # Number of read requests responded to by this memory
system.mem_ctrls1.num_reads::total              48045                       # Number of read requests responded to by this memory
system.mem_ctrls1.bw_read::cpu0.inst          1305484                       # Total read bandwidth from this memory (bytes/s)
system.mem_ctrls1.bw_read::cpu0.data         27617122                       # Total read bandwidth from this memory (bytes/s)
system.mem_ctrls1.bw_read::cpu1.inst          1271825                       # Total read bandwidth from this memory (bytes/s)
system.mem_ctrls1.bw_read::cpu1.data         27590676                       # Total read bandwidth from this memory (bytes/s)
system.mem_ctrls1.bw_read::cpu2.inst          1283846                       # Total read bandwidth from this memory (bytes/s)
system.mem_ctrls1.bw_read::cpu2.data         27583463                       # Total read bandwidth from this memory (bytes/s)
system.mem_ctrls1.bw_read::cpu3.inst          1279038                       # Total read bandwidth from this memory (bytes/s)
system.mem_ctrls1.bw_read::cpu3.data         27578655                       # Total read bandwidth from this memory (bytes/s)
system.mem_ctrls1.bw_read::total            115510109                       # Total read bandwidth from this memory (bytes/s)
system.mem_ctrls1.bw_inst_read::cpu0.inst      1305484                       # Instruction read bandwidth from this memory (bytes/s)
system.mem_ctrls1.bw_inst_read::cpu1.inst      1271825                       # Instruction read bandwidth from this memory (bytes/s)
system.mem_ctrls1.bw_inst_read::cpu2.inst      1283846                       # Instruction read bandwidth from this memory (bytes/s)
system.mem_ctrls1.bw_inst_read::cpu3.inst      1279038                       # Instruction read bandwidth from this memory (bytes/s)
system.mem_ctrls1.bw_inst_read::total         5140194                       # Instruction read bandwidth from this memory (bytes/s)
system.mem_ctrls1.bw_total::cpu0.inst         1305484                       # Total bandwidth to/from this memory (bytes/s)
system.mem_ctrls1.bw_total::cpu0.data        27617122                       # Total bandwidth to/from this memory (bytes/s)
system.mem_ctrls1.bw_total::cpu1.inst         1271825                       # Total bandwidth to/from this memory (bytes/s)
system.mem_ctrls1.bw_total::cpu1.data        27590676                       # Total bandwidth to/from this memory (bytes/s)
system.mem_ctrls1.bw_total::cpu2.inst         1283846                       # Total bandwidth to/from this memory (bytes/s)
system.mem_ctrls1.bw_total::cpu2.data        27583463                       # Total bandwidth to/from this memory (bytes/s)
system.mem_ctrls1.bw_total::cpu3.inst         1279038                       # Total bandwidth to/from this memory (bytes/s)
system.mem_ctrls1.bw_total::cpu3.data        27578655                       # Total bandwidth to/from this memory (bytes/s)
system.mem_ctrls1.bw_total::total           115510109                       # Total bandwidth to/from this memory (bytes/s)
system.mem_ctrls1.readReqs                      48045                       # Number of read requests accepted
system.mem_ctrls1.writeReqs                         0                       # Number of write requests accepted
system.mem_ctrls1.readBursts                    48045                       # Number of DRAM read bursts, including those serviced by the write queue
system.mem_ctrls1.writeBursts                       0                       # Number of DRAM write bursts, including those merged in the write queue
system.mem_ctrls1.bytesReadDRAM               3074880                       # Total number of bytes read from DRAM
system.mem_ctrls1.bytesReadWrQ                      0                       # Total number of bytes read from write queue
system.mem_ctrls1.bytesWritten                      0                       # Total number of bytes written to DRAM
system.mem_ctrls1.bytesReadSys                3074880                       # Total read bytes from the system interface side
system.mem_ctrls1.bytesWrittenSys                   0                       # Total written bytes from the system interface side
system.mem_ctrls1.servicedByWrQ                     0                       # Number of DRAM read bursts serviced by the write queue
system.mem_ctrls1.mergedWrBursts                    0                       # Number of DRAM write bursts merged with an existing one
system.mem_ctrls1.neitherReadNorWriteReqs            0                       # Number of requests that are neither read nor write
system.mem_ctrls1.perBankRdBursts::0             2793                       # Per bank write bursts
system.mem_ctrls1.perBankRdBursts::1             3070                       # Per bank write bursts
system.mem_ctrls1.perBankRdBursts::2             3122                       # Per bank write bursts
system.mem_ctrls1.perBankRdBursts::3             3201                       # Per bank write bursts
system.mem_ctrls1.perBankRdBursts::4             3223                       # Per bank write bursts
system.mem_ctrls1.perBankRdBursts::5             3265                       # Per bank write bursts
system.mem_ctrls1.perBankRdBursts::6             3347                       # Per bank write bursts
system.mem_ctrls1.perBankRdBursts::7             3257                       # Per bank write bursts
system.mem_ctrls1.perBankRdBursts::8             3283                       # Per bank write bursts
system.mem_ctrls1.perBankRdBursts::9             2941                       # Per bank write bursts
system.mem_ctrls1.perBankRdBursts::10            2817                       # Per bank write bursts
system.mem_ctrls1.perBankRdBursts::11            2832                       # Per bank write bursts
system.mem_ctrls1.perBankRdBursts::12            2795                       # Per bank write bursts
system.mem_ctrls1.perBankRdBursts::13            2730                       # Per bank write bursts
system.mem_ctrls1.perBankRdBursts::14            2684                       # Per bank write bursts
system.mem_ctrls1.perBankRdBursts::15            2685                       # Per bank write bursts
system.mem_ctrls1.perBankWrBursts::0                0                       # Per bank write bursts
system.mem_ctrls1.perBankWrBursts::1                0                       # Per bank write bursts
system.mem_ctrls1.perBankWrBursts::2                0                       # Per bank write bursts
system.mem_ctrls1.perBankWrBursts::3                0                       # Per bank write bursts
system.mem_ctrls1.perBankWrBursts::4                0                       # Per bank write bursts
system.mem_ctrls1.perBankWrBursts::5                0                       # Per bank write bursts
system.mem_ctrls1.perBankWrBursts::6                0                       # Per bank write bursts
system.mem_ctrls1.perBankWrBursts::7                0                       # Per bank write bursts
system.mem_ctrls1.perBankWrBursts::8                0                       # Per bank write bursts
system.mem_ctrls1.perBankWrBursts::9                0                       # Per bank write bursts
system.mem_ctrls1.perBankWrBursts::10               0                       # Per bank write bursts
system.mem_ctrls1.perBankWrBursts::11               0                       # Per bank write bursts
system.mem_ctrls1.perBankWrBursts::12               0                       # Per bank write bursts
system.mem_ctrls1.perBankWrBursts::13               0                       # Per bank write bursts
system.mem_ctrls1.perBankWrBursts::14               0                       # Per bank write bursts
system.mem_ctrls1.perBankWrBursts::15               0                       # Per bank write bursts
system.mem_ctrls1.numRdRetry                        0                       # Number of times read queue was full causing retry
system.mem_ctrls1.numWrRetry                        0                       # Number of times write queue was full causing retry
system.mem_ctrls1.totGap                  15501764364                       # Total gap between requests
system.mem_ctrls1.readPktSize::0                    0                       # Read request sizes (log2)
system.mem_ctrls1.readPktSize::1                    0                       # Read request sizes (log2)
system.mem_ctrls1.readPktSize::2                    0                       # Read request sizes (log2)
system.mem_ctrls1.readPktSize::3                    0                       # Read request sizes (log2)
system.mem_ctrls1.readPktSize::4                    0                       # Read request sizes (log2)
system.mem_ctrls1.readPktSize::5                    0                       # Read request sizes (log2)
system.mem_ctrls1.readPktSize::6                48045                       # Read request sizes (log2)
system.mem_ctrls1.writePktSize::0                   0                       # Write request sizes (log2)
system.mem_ctrls1.writePktSize::1                   0                       # Write request sizes (log2)
system.mem_ctrls1.writePktSize::2                   0                       # Write request sizes (log2)
system.mem_ctrls1.writePktSize::3                   0                       # Write request sizes (log2)
system.mem_ctrls1.writePktSize::4                   0                       # Write request sizes (log2)
system.mem_ctrls1.writePktSize::5                   0                       # Write request sizes (log2)
system.mem_ctrls1.writePktSize::6                   0                       # Write request sizes (log2)
system.mem_ctrls1.rdQLenPdf::0                  26786                       # What read queue length does an incoming req see
system.mem_ctrls1.rdQLenPdf::1                  14732                       # What read queue length does an incoming req see
system.mem_ctrls1.rdQLenPdf::2                   5671                       # What read queue length does an incoming req see
system.mem_ctrls1.rdQLenPdf::3                    734                       # What read queue length does an incoming req see
system.mem_ctrls1.rdQLenPdf::4                     79                       # What read queue length does an incoming req see
system.mem_ctrls1.rdQLenPdf::5                     27                       # What read queue length does an incoming req see
system.mem_ctrls1.rdQLenPdf::6                      7                       # What read queue length does an incoming req see
system.mem_ctrls1.rdQLenPdf::7                      5                       # What read queue length does an incoming req see
system.mem_ctrls1.rdQLenPdf::8                      4                       # What read queue length does an incoming req see
system.mem_ctrls1.rdQLenPdf::9                      0                       # What read queue length does an incoming req see
system.mem_ctrls1.rdQLenPdf::10                     0                       # What read queue length does an incoming req see
system.mem_ctrls1.rdQLenPdf::11                     0                       # What read queue length does an incoming req see
system.mem_ctrls1.rdQLenPdf::12                     0                       # What read queue length does an incoming req see
system.mem_ctrls1.rdQLenPdf::13                     0                       # What read queue length does an incoming req see
system.mem_ctrls1.rdQLenPdf::14                     0                       # What read queue length does an incoming req see
system.mem_ctrls1.rdQLenPdf::15                     0                       # What read queue length does an incoming req see
system.mem_ctrls1.rdQLenPdf::16                     0                       # What read queue length does an incoming req see
system.mem_ctrls1.rdQLenPdf::17                     0                       # What read queue length does an incoming req see
system.mem_ctrls1.rdQLenPdf::18                     0                       # What read queue length does an incoming req see
system.mem_ctrls1.rdQLenPdf::19                     0                       # What read queue length does an incoming req see
system.mem_ctrls1.rdQLenPdf::20                     0                       # What read queue length does an incoming req see
system.mem_ctrls1.rdQLenPdf::21                     0                       # What read queue length does an incoming req see
system.mem_ctrls1.rdQLenPdf::22                     0                       # What read queue length does an incoming req see
system.mem_ctrls1.rdQLenPdf::23                     0                       # What read queue length does an incoming req see
system.mem_ctrls1.rdQLenPdf::24                     0                       # What read queue length does an incoming req see
system.mem_ctrls1.rdQLenPdf::25                     0                       # What read queue length does an incoming req see
system.mem_ctrls1.rdQLenPdf::26                     0                       # What read queue length does an incoming req see
system.mem_ctrls1.rdQLenPdf::27                     0                       # What read queue length does an incoming req see
system.mem_ctrls1.rdQLenPdf::28                     0                       # What read queue length does an incoming req see
system.mem_ctrls1.rdQLenPdf::29                     0                       # What read queue length does an incoming req see
system.mem_ctrls1.rdQLenPdf::30                     0                       # What read queue length does an incoming req see
system.mem_ctrls1.rdQLenPdf::31                     0                       # What read queue length does an incoming req see
system.mem_ctrls1.wrQLenPdf::0                      0                       # What write queue length does an incoming req see
system.mem_ctrls1.wrQLenPdf::1                      0                       # What write queue length does an incoming req see
system.mem_ctrls1.wrQLenPdf::2                      0                       # What write queue length does an incoming req see
system.mem_ctrls1.wrQLenPdf::3                      0                       # What write queue length does an incoming req see
system.mem_ctrls1.wrQLenPdf::4                      0                       # What write queue length does an incoming req see
system.mem_ctrls1.wrQLenPdf::5                      0                       # What write queue length does an incoming req see
system.mem_ctrls1.wrQLenPdf::6                      0                       # What write queue length does an incoming req see
system.mem_ctrls1.wrQLenPdf::7                      0                       # What write queue length does an incoming req see
system.mem_ctrls1.wrQLenPdf::8                      0                       # What write queue length does an incoming req see
system.mem_ctrls1.wrQLenPdf::9                      0                       # What write queue length does an incoming req see
system.mem_ctrls1.wrQLenPdf::10                     0                       # What write queue length does an incoming req see
system.mem_ctrls1.wrQLenPdf::11                     0                       # What write queue length does an incoming req see
system.mem_ctrls1.wrQLenPdf::12                     0                       # What write queue length does an incoming req see
system.mem_ctrls1.wrQLenPdf::13                     0                       # What write queue length does an incoming req see
system.mem_ctrls1.wrQLenPdf::14                     0                       # What write queue length does an incoming req see
system.mem_ctrls1.wrQLenPdf::15                     0                       # What write queue length does an incoming req see
system.mem_ctrls1.wrQLenPdf::16                     0                       # What write queue length does an incoming req see
system.mem_ctrls1.wrQLenPdf::17                     0                       # What write queue length does an incoming req see
system.mem_ctrls1.wrQLenPdf::18                     0                       # What write queue length does an incoming req see
system.mem_ctrls1.wrQLenPdf::19                     0                       # What write queue length does an incoming req see
system.mem_ctrls1.wrQLenPdf::20                     0                       # What write queue length does an incoming req see
system.mem_ctrls1.wrQLenPdf::21                     0                       # What write queue length does an incoming req see
system.mem_ctrls1.wrQLenPdf::22                     0                       # What write queue length does an incoming req see
system.mem_ctrls1.wrQLenPdf::23                     0                       # What write queue length does an incoming req see
system.mem_ctrls1.wrQLenPdf::24                     0                       # What write queue length does an incoming req see
system.mem_ctrls1.wrQLenPdf::25                     0                       # What write queue length does an incoming req see
system.mem_ctrls1.wrQLenPdf::26                     0                       # What write queue length does an incoming req see
system.mem_ctrls1.wrQLenPdf::27                     0                       # What write queue length does an incoming req see
system.mem_ctrls1.wrQLenPdf::28                     0                       # What write queue length does an incoming req see
system.mem_ctrls1.wrQLenPdf::29                     0                       # What write queue length does an incoming req see
system.mem_ctrls1.wrQLenPdf::30                     0                       # What write queue length does an incoming req see
system.mem_ctrls1.wrQLenPdf::31                     0                       # What write queue length does an incoming req see
system.mem_ctrls1.wrQLenPdf::32                     0                       # What write queue length does an incoming req see
system.mem_ctrls1.wrQLenPdf::33                     0                       # What write queue length does an incoming req see
system.mem_ctrls1.wrQLenPdf::34                     0                       # What write queue length does an incoming req see
system.mem_ctrls1.wrQLenPdf::35                     0                       # What write queue length does an incoming req see
system.mem_ctrls1.wrQLenPdf::36                     0                       # What write queue length does an incoming req see
system.mem_ctrls1.wrQLenPdf::37                     0                       # What write queue length does an incoming req see
system.mem_ctrls1.wrQLenPdf::38                     0                       # What write queue length does an incoming req see
system.mem_ctrls1.wrQLenPdf::39                     0                       # What write queue length does an incoming req see
system.mem_ctrls1.wrQLenPdf::40                     0                       # What write queue length does an incoming req see
system.mem_ctrls1.wrQLenPdf::41                     0                       # What write queue length does an incoming req see
system.mem_ctrls1.wrQLenPdf::42                     0                       # What write queue length does an incoming req see
system.mem_ctrls1.wrQLenPdf::43                     0                       # What write queue length does an incoming req see
system.mem_ctrls1.wrQLenPdf::44                     0                       # What write queue length does an incoming req see
system.mem_ctrls1.wrQLenPdf::45                     0                       # What write queue length does an incoming req see
system.mem_ctrls1.wrQLenPdf::46                     0                       # What write queue length does an incoming req see
system.mem_ctrls1.wrQLenPdf::47                     0                       # What write queue length does an incoming req see
system.mem_ctrls1.wrQLenPdf::48                     0                       # What write queue length does an incoming req see
system.mem_ctrls1.wrQLenPdf::49                     0                       # What write queue length does an incoming req see
system.mem_ctrls1.wrQLenPdf::50                     0                       # What write queue length does an incoming req see
system.mem_ctrls1.wrQLenPdf::51                     0                       # What write queue length does an incoming req see
system.mem_ctrls1.wrQLenPdf::52                     0                       # What write queue length does an incoming req see
system.mem_ctrls1.wrQLenPdf::53                     0                       # What write queue length does an incoming req see
system.mem_ctrls1.wrQLenPdf::54                     0                       # What write queue length does an incoming req see
system.mem_ctrls1.wrQLenPdf::55                     0                       # What write queue length does an incoming req see
system.mem_ctrls1.wrQLenPdf::56                     0                       # What write queue length does an incoming req see
system.mem_ctrls1.wrQLenPdf::57                     0                       # What write queue length does an incoming req see
system.mem_ctrls1.wrQLenPdf::58                     0                       # What write queue length does an incoming req see
system.mem_ctrls1.wrQLenPdf::59                     0                       # What write queue length does an incoming req see
system.mem_ctrls1.wrQLenPdf::60                     0                       # What write queue length does an incoming req see
system.mem_ctrls1.wrQLenPdf::61                     0                       # What write queue length does an incoming req see
system.mem_ctrls1.wrQLenPdf::62                     0                       # What write queue length does an incoming req see
system.mem_ctrls1.wrQLenPdf::63                     0                       # What write queue length does an incoming req see
system.mem_ctrls1.bytesPerActivate::samples        24807                       # Bytes accessed per row activation
system.mem_ctrls1.bytesPerActivate::mean   123.952110                       # Bytes accessed per row activation
system.mem_ctrls1.bytesPerActivate::gmean    87.981070                       # Bytes accessed per row activation
system.mem_ctrls1.bytesPerActivate::stdev   172.994836                       # Bytes accessed per row activation
system.mem_ctrls1.bytesPerActivate::0-127        17968     72.43%     72.43% # Bytes accessed per row activation
system.mem_ctrls1.bytesPerActivate::128-255         4814     19.41%     91.84% # Bytes accessed per row activation
system.mem_ctrls1.bytesPerActivate::256-383          200      0.81%     92.64% # Bytes accessed per row activation
system.mem_ctrls1.bytesPerActivate::384-511          412      1.66%     94.30% # Bytes accessed per row activation
system.mem_ctrls1.bytesPerActivate::512-639          569      2.29%     96.60% # Bytes accessed per row activation
system.mem_ctrls1.bytesPerActivate::640-767          244      0.98%     97.58% # Bytes accessed per row activation
system.mem_ctrls1.bytesPerActivate::768-895           41      0.17%     97.75% # Bytes accessed per row activation
system.mem_ctrls1.bytesPerActivate::896-1023           23      0.09%     97.84% # Bytes accessed per row activation
system.mem_ctrls1.bytesPerActivate::1024-1151          536      2.16%    100.00% # Bytes accessed per row activation
system.mem_ctrls1.bytesPerActivate::total        24807                       # Bytes accessed per row activation
system.mem_ctrls1.totQLat                  1388700967                       # Total ticks spent queuing
system.mem_ctrls1.totMemAccLat             2289544717                       # Total ticks spent from burst creation until serviced by the DRAM
system.mem_ctrls1.totBusLat                 240225000                       # Total ticks spent in databus transfers
system.mem_ctrls1.avgQLat                    28904.17                       # Average queueing delay per DRAM burst
system.mem_ctrls1.avgBusLat                   5000.00                       # Average bus latency per DRAM burst
system.mem_ctrls1.avgMemAccLat               47654.17                       # Average memory access latency per DRAM burst
system.mem_ctrls1.avgRdBW                      115.51                       # Average DRAM read bandwidth in MiByte/s
system.mem_ctrls1.avgWrBW                        0.00                       # Average achieved write bandwidth in MiByte/s
system.mem_ctrls1.avgRdBWSys                   115.51                       # Average system read bandwidth in MiByte/s
system.mem_ctrls1.avgWrBWSys                     0.00                       # Average system write bandwidth in MiByte/s
system.mem_ctrls1.peakBW                     12800.00                       # Theoretical peak bandwidth in MiByte/s
system.mem_ctrls1.busUtil                        0.90                       # Data bus utilization in percentage
system.mem_ctrls1.busUtilRead                    0.90                       # Data bus utilization in percentage for reads
system.mem_ctrls1.busUtilWrite                   0.00                       # Data bus utilization in percentage for writes
system.mem_ctrls1.avgRdQLen                      1.18                       # Average read queue length when enqueuing
system.mem_ctrls1.avgWrQLen                      0.00                       # Average write queue length when enqueuing
system.mem_ctrls1.readRowHits                   23238                       # Number of row buffer hits during reads
system.mem_ctrls1.writeRowHits                      0                       # Number of row buffer hits during writes
system.mem_ctrls1.readRowHitRate                48.37                       # Row buffer hit rate for reads
system.mem_ctrls1.writeRowHitRate                 nan                       # Row buffer hit rate for writes
system.mem_ctrls1.avgGap                    322650.94                       # Average gap between requests
system.mem_ctrls1.pageHitRate                   48.37                       # Row buffer hit rate, read and write combined
system.mem_ctrls1_0.actEnergy                94505040                       # Energy for activate commands per rank (pJ)
system.mem_ctrls1_0.preEnergy                50230620                       # Energy for precharge commands per rank (pJ)
system.mem_ctrls1_0.readEnergy              180484920                       # Energy for read commands per rank (pJ)
system.mem_ctrls1_0.writeEnergy                     0                       # Energy for write commands per rank (pJ)
system.mem_ctrls1_0.refreshEnergy        317154240.000000                       # Energy for refresh commands per rank (pJ)
system.mem_ctrls1_0.actBackEnergy           427156860                       # Energy for active background per rank (pJ)
system.mem_ctrls1_0.preBackEnergy            19064160                       # Energy for precharge background per rank (pJ)
system.mem_ctrls1_0.actPowerDownEnergy     1298147070                       # Energy for active power-down per rank (pJ)
system.mem_ctrls1_0.prePowerDownEnergy       48677280                       # Energy for precharge power-down per rank (pJ)
system.mem_ctrls1_0.selfRefreshEnergy      5442826920                       # Energy for self refresh per rank (pJ)
system.mem_ctrls1_0.totalEnergy            7878247110                       # Total energy per rank (pJ)
system.mem_ctrls1_0.averagePower           295.952086                       # Core power per rank (mW)
system.mem_ctrls1_0.totalIdleTime         14527001495                       # Total Idle time Per DRAM Rank
system.mem_ctrls1_0.memoryStateTime::IDLE      4777965                       # Time in different power states
system.mem_ctrls1_0.memoryStateTime::REF    134214000                       # Time in different power states
system.mem_ctrls1_0.memoryStateTime::SREF  22660038679                       # Time in different power states
system.mem_ctrls1_0.memoryStateTime::PRE_PDN    126766918                       # Time in different power states
system.mem_ctrls1_0.memoryStateTime::ACT    847240534                       # Time in different power states
system.mem_ctrls1_0.memoryStateTime::ACT_PDN   2846969583                       # Time in different power states
system.mem_ctrls1_1.actEnergy                82616940                       # Energy for activate commands per rank (pJ)
system.mem_ctrls1_1.preEnergy                43911945                       # Energy for precharge commands per rank (pJ)
system.mem_ctrls1_1.readEnergy              162556380                       # Energy for read commands per rank (pJ)
system.mem_ctrls1_1.writeEnergy                     0                       # Energy for write commands per rank (pJ)
system.mem_ctrls1_1.refreshEnergy        286422240.000000                       # Energy for refresh commands per rank (pJ)
system.mem_ctrls1_1.actBackEnergy           387393090                       # Energy for active background per rank (pJ)
system.mem_ctrls1_1.preBackEnergy            15787200                       # Energy for precharge background per rank (pJ)
system.mem_ctrls1_1.actPowerDownEnergy     1148682240                       # Energy for active power-down per rank (pJ)
system.mem_ctrls1_1.prePowerDownEnergy       56240160                       # Energy for precharge power-down per rank (pJ)
system.mem_ctrls1_1.selfRefreshEnergy      5540846700                       # Energy for self refresh per rank (pJ)
system.mem_ctrls1_1.totalEnergy            7724456895                       # Total energy per rank (pJ)
system.mem_ctrls1_1.averagePower           290.174844                       # Core power per rank (mW)
system.mem_ctrls1_1.totalIdleTime         14623426924                       # Total Idle time Per DRAM Rank
system.mem_ctrls1_1.memoryStateTime::IDLE      5100789                       # Time in different power states
system.mem_ctrls1_1.memoryStateTime::REF    121226000                       # Time in different power states
system.mem_ctrls1_1.memoryStateTime::SREF  23063851679                       # Time in different power states
system.mem_ctrls1_1.memoryStateTime::PRE_PDN    146458366                       # Time in different power states
system.mem_ctrls1_1.memoryStateTime::ACT    764209551                       # Time in different power states
system.mem_ctrls1_1.memoryStateTime::ACT_PDN   2519161294                       # Time in different power states
system.pwrStateResidencyTicks::UNDEFINED  26620007679                       # Cumulative time (in ticks) in various power states
system.cpu0.branchPred.lookups                6681912                       # Number of BP lookups
system.cpu0.branchPred.condPredicted          6681912                       # Number of conditional branches predicted
system.cpu0.branchPred.condIncorrect             2683                       # Number of conditional branches incorrect
system.cpu0.branchPred.BTBLookups             6023950                       # Number of BTB lookups
system.cpu0.branchPred.BTBHits                      0                       # Number of BTB hits
system.cpu0.branchPred.BTBCorrect                   0                       # Number of correct BTB predictions (this stat may not work properly.
system.cpu0.branchPred.BTBHitPct             0.000000                       # BTB Hit Percentage
system.cpu0.branchPred.usedRAS                 609707                       # Number of times the RAS was used to get a target.
system.cpu0.branchPred.RASInCorrect               572                       # Number of incorrect RAS predictions.
system.cpu0.branchPred.indirectLookups        6023950                       # Number of indirect predictor lookups.
system.cpu0.branchPred.indirectHits           4360919                       # Number of indirect target hits.
system.cpu0.branchPred.indirectMisses         1663031                       # Number of indirect misses.
system.cpu0.branchPredindirectMispredicted         1795                       # Number of mispredicted indirect branches.
system.cpu_voltage_domain.voltage                   1                       # Voltage in Volts
system.cpu_clk_domain.clock                       333                       # Clock period in ticks
system.cpu0.dtb.walker.pwrStateResidencyTicks::UNDEFINED  26620007679                       # Cumulative time (in ticks) in various power states
system.cpu0.apic_clk_domain.clock                5328                       # Clock period in ticks
system.cpu0.interrupts.pwrStateResidencyTicks::UNDEFINED  26620007679                       # Cumulative time (in ticks) in various power states
system.cpu0.itb.walker.pwrStateResidencyTicks::UNDEFINED  26620007679                       # Cumulative time (in ticks) in various power states
system.cpu0.workload.num_syscalls                  16                       # Number of system calls
system.cpu0.pwrStateResidencyTicks::ON    26620007679                       # Cumulative time (in ticks) in various power states
system.cpu0.numCycles                        79939964                       # number of cpu cycles simulated
system.cpu0.numWorkItemsStarted                     0                       # number of work items this cpu started
system.cpu0.numWorkItemsCompleted                   0                       # number of work items this cpu completed
system.cpu0.fetch.icacheStallCycles          34085943                       # Number of cycles fetch is stalled on an Icache miss
system.cpu0.fetch.Insts                      99866051                       # Number of instructions fetch has processed
system.cpu0.fetch.Branches                    6681912                       # Number of branches that fetch encountered
system.cpu0.fetch.predictedBranches           4970626                       # Number of branches that fetch has predicted taken
system.cpu0.fetch.Cycles                     45680794                       # Number of cycles fetch has run and was not squashing or blocked
system.cpu0.fetch.SquashCycles                   7388                       # Number of cycles fetch has spent squashing
system.cpu0.fetch.MiscStallCycles                 186                       # Number of cycles fetch has spent waiting on interrupts, or bad addresses, or out of MSHRs
system.cpu0.fetch.PendingTrapStallCycles         1367                       # Number of stall cycles due to pending traps
system.cpu0.fetch.PendingQuiesceStallCycles            7                       # Number of stall cycles due to pending quiesce instructions
system.cpu0.fetch.CacheLines                 11342609                       # Number of cache lines fetched
system.cpu0.fetch.IcacheSquashes                 2080                       # Number of outstanding Icache misses that were squashed
system.cpu0.fetch.rateDist::samples          79771991                       # Number of instructions fetched each cycle (Total)
system.cpu0.fetch.rateDist::mean             1.851241                       # Number of instructions fetched each cycle (Total)
system.cpu0.fetch.rateDist::stdev            3.113670                       # Number of instructions fetched each cycle (Total)
system.cpu0.fetch.rateDist::underflows              0      0.00%      0.00% # Number of instructions fetched each cycle (Total)
system.cpu0.fetch.rateDist::0                55423203     69.48%     69.48% # Number of instructions fetched each cycle (Total)
system.cpu0.fetch.rateDist::1                 1681937      2.11%     71.59% # Number of instructions fetched each cycle (Total)
system.cpu0.fetch.rateDist::2                 1846334      2.31%     73.90% # Number of instructions fetched each cycle (Total)
system.cpu0.fetch.rateDist::3                 1974229      2.47%     76.37% # Number of instructions fetched each cycle (Total)
system.cpu0.fetch.rateDist::4                 1459988      1.83%     78.21% # Number of instructions fetched each cycle (Total)
system.cpu0.fetch.rateDist::5                 1583129      1.98%     80.19% # Number of instructions fetched each cycle (Total)
system.cpu0.fetch.rateDist::6                 1305333      1.64%     81.83% # Number of instructions fetched each cycle (Total)
system.cpu0.fetch.rateDist::7                 1190435      1.49%     83.32% # Number of instructions fetched each cycle (Total)
system.cpu0.fetch.rateDist::8                13307403     16.68%    100.00% # Number of instructions fetched each cycle (Total)
system.cpu0.fetch.rateDist::overflows               0      0.00%    100.00% # Number of instructions fetched each cycle (Total)
system.cpu0.fetch.rateDist::min_value               0                       # Number of instructions fetched each cycle (Total)
system.cpu0.fetch.rateDist::max_value               8                       # Number of instructions fetched each cycle (Total)
system.cpu0.fetch.rateDist::total            79771991                       # Number of instructions fetched each cycle (Total)
system.cpu0.fetch.branchRate                 0.083587                       # Number of branch fetches per cycle
system.cpu0.fetch.rate                       1.249263                       # Number of inst fetches per cycle
system.cpu0.decode.IdleCycles                24573672                       # Number of cycles decode is idle
system.cpu0.decode.BlockedCycles             32641213                       # Number of cycles decode is blocked
system.cpu0.decode.RunCycles                 18998638                       # Number of cycles decode is running
system.cpu0.decode.UnblockCycles              3554774                       # Number of cycles decode is unblocking
system.cpu0.decode.SquashCycles                  3694                       # Number of cycles decode is squashing
system.cpu0.decode.DecodedInsts             147662006                       # Number of instructions handled by decode
system.cpu0.rename.SquashCycles                  3694                       # Number of cycles rename is squashing
system.cpu0.rename.IdleCycles                26682889                       # Number of cycles rename is idle
system.cpu0.rename.BlockCycles                7240465                       # Number of cycles rename is blocking
system.cpu0.rename.serializeStallCycles           970                       # count of cycles rename stalled for serializing inst
system.cpu0.rename.RunCycles                 20279825                       # Number of cycles rename is running
system.cpu0.rename.UnblockCycles             25564148                       # Number of cycles rename is unblocking
system.cpu0.rename.RenamedInsts             147652610                       # Number of instructions processed by rename
system.cpu0.rename.ROBFullEvents                   69                       # Number of times rename has blocked due to ROB full
system.cpu0.rename.IQFullEvents               5322485                       # Number of times rename has blocked due to IQ full
system.cpu0.rename.LQFullEvents              17979761                       # Number of times rename has blocked due to LQ full
system.cpu0.rename.SQFullEvents                981062                       # Number of times rename has blocked due to SQ full
system.cpu0.rename.RenamedOperands          163343448                       # Number of destination operands rename has renamed
system.cpu0.rename.RenameLookups            347818728                       # Number of register rename lookups that rename has made
system.cpu0.rename.int_rename_lookups       163507871                       # Number of integer rename lookups
system.cpu0.rename.fp_rename_lookups        104267995                       # Number of floating rename lookups
system.cpu0.rename.CommittedMaps            163249071                       # Number of HB maps that are committed
system.cpu0.rename.UndoneMaps                   94330                       # Number of HB maps that are undone due to squashing
system.cpu0.rename.serializingInsts                20                       # count of serializing insts renamed
system.cpu0.rename.tempSerializingInsts            18                       # count of temporary serializing insts renamed
system.cpu0.rename.skidInsts                 26690992                       # count of insts added to the skid buffer
system.cpu0.memDep0.insertedLoads            29011842                       # Number of loads inserted to the mem dependence unit.
system.cpu0.memDep0.insertedStores            8015475                       # Number of stores inserted to the mem dependence unit.
system.cpu0.memDep0.conflictingLoads          6810386                       # Number of conflicting loads.
system.cpu0.memDep0.conflictingStores         1551503                       # Number of conflicting stores.
system.cpu0.iq.iqInstsAdded                 147636514                       # Number of instructions added to the IQ (excludes non-spec)
system.cpu0.iq.iqNonSpecInstsAdded                472                       # Number of non-speculative instructions added to the IQ
system.cpu0.iq.iqInstsIssued                148998090                       # Number of instructions issued
system.cpu0.iq.iqSquashedInstsIssued              122                       # Number of squashed instructions issued
system.cpu0.iq.iqSquashedInstsExamined          72966                       # Number of squashed instructions iterated over during squash; mainly for profiling
system.cpu0.iq.iqSquashedOperandsExamined        83482                       # Number of squashed operands that are examined and possibly removed from graph
system.cpu0.iq.iqSquashedNonSpecRemoved           420                       # Number of squashed non-spec instructions that were removed
system.cpu0.iq.issued_per_cycle::samples     79771991                       # Number of insts issued each cycle
system.cpu0.iq.issued_per_cycle::mean        1.867800                       # Number of insts issued each cycle
system.cpu0.iq.issued_per_cycle::stdev       1.855909                       # Number of insts issued each cycle
system.cpu0.iq.issued_per_cycle::underflows            0      0.00%      0.00% # Number of insts issued each cycle
system.cpu0.iq.issued_per_cycle::0           24639578     30.89%     30.89% # Number of insts issued each cycle
system.cpu0.iq.issued_per_cycle::1           15402807     19.31%     50.20% # Number of insts issued each cycle
[...]
system.l3.demand_mshr_miss_latency::cpu2.data   2053663218                       # number of demand (read+write) MSHR miss cycles
system.l3.demand_mshr_miss_latency::cpu3.inst     93390233                       # number of demand (read+write) MSHR miss cycles
system.l3.demand_mshr_miss_latency::cpu3.data   2146980052                       # number of demand (read+write) MSHR miss cycles
system.l3.demand_mshr_miss_latency::total   8771091564                       # number of demand (read+write) MSHR miss cycles
system.l3.overall_mshr_miss_latency::cpu0.inst     91574562                       # number of overall MSHR miss cycles
system.l3.overall_mshr_miss_latency::cpu0.data   2182987532                       # number of overall MSHR miss cycles
system.l3.overall_mshr_miss_latency::cpu1.inst     96148741                       # number of overall MSHR miss cycles
system.l3.overall_mshr_miss_latency::cpu1.data   2014671613                       # number of overall MSHR miss cycles
system.l3.overall_mshr_miss_latency::cpu2.inst     91675613                       # number of overall MSHR miss cycles
system.l3.overall_mshr_miss_latency::cpu2.data   2053663218                       # number of overall MSHR miss cycles
system.l3.overall_mshr_miss_latency::cpu3.inst     93390233                       # number of overall MSHR miss cycles
system.l3.overall_mshr_miss_latency::cpu3.data   2146980052                       # number of overall MSHR miss cycles
system.l3.overall_mshr_miss_latency::total   8771091564                       # number of overall MSHR miss cycles
system.l3.ReadExReq_mshr_miss_rate::cpu0.data     0.999780                       # mshr miss rate for ReadExReq accesses
system.l3.ReadExReq_mshr_miss_rate::cpu1.data     0.999780                       # mshr miss rate for ReadExReq accesses
system.l3.ReadExReq_mshr_miss_rate::cpu2.data     0.999780                       # mshr miss rate for ReadExReq accesses
system.l3.ReadExReq_mshr_miss_rate::cpu3.data     0.999868                       # mshr miss rate for ReadExReq accesses
system.l3.ReadExReq_mshr_miss_rate::total     0.999802                       # mshr miss rate for ReadExReq accesses
system.l3.ReadSharedReq_mshr_miss_rate::cpu0.inst     0.995362                       # mshr miss rate for ReadSharedReq accesses
system.l3.ReadSharedReq_mshr_miss_rate::cpu0.data     0.000736                       # mshr miss rate for ReadSharedReq accesses
system.l3.ReadSharedReq_mshr_miss_rate::cpu1.inst     0.995353                       # mshr miss rate for ReadSharedReq accesses
system.l3.ReadSharedReq_mshr_miss_rate::cpu1.data     0.000750                       # mshr miss rate for ReadSharedReq accesses
system.l3.ReadSharedReq_mshr_miss_rate::cpu2.inst     0.995366                       # mshr miss rate for ReadSharedReq accesses
system.l3.ReadSharedReq_mshr_miss_rate::cpu2.data     0.000732                       # mshr miss rate for ReadSharedReq accesses
system.l3.ReadSharedReq_mshr_miss_rate::cpu3.inst     0.995362                       # mshr miss rate for ReadSharedReq accesses
system.l3.ReadSharedReq_mshr_miss_rate::cpu3.data     0.000724                       # mshr miss rate for ReadSharedReq accesses
system.l3.ReadSharedReq_mshr_miss_rate::total     0.004847                       # mshr miss rate for ReadSharedReq accesses
system.l3.demand_mshr_miss_rate::cpu0.inst     0.995362                       # mshr miss rate for demand accesses
system.l3.demand_mshr_miss_rate::cpu0.data     0.081373                       # mshr miss rate for demand accesses
system.l3.demand_mshr_miss_rate::cpu1.inst     0.995353                       # mshr miss rate for demand accesses
system.l3.demand_mshr_miss_rate::cpu1.data     0.081239                       # mshr miss rate for demand accesses
system.l3.demand_mshr_miss_rate::cpu2.inst     0.995366                       # mshr miss rate for demand accesses
system.l3.demand_mshr_miss_rate::cpu2.data     0.081316                       # mshr miss rate for demand accesses
system.l3.demand_mshr_miss_rate::cpu3.inst     0.995362                       # mshr miss rate for demand accesses
system.l3.demand_mshr_miss_rate::cpu3.data     0.081292                       # mshr miss rate for demand accesses
system.l3.demand_mshr_miss_rate::total       0.084780                       # mshr miss rate for demand accesses
system.l3.overall_mshr_miss_rate::cpu0.inst     0.995362                       # mshr miss rate for overall accesses
system.l3.overall_mshr_miss_rate::cpu0.data     0.081373                       # mshr miss rate for overall accesses
system.l3.overall_mshr_miss_rate::cpu1.inst     0.995353                       # mshr miss rate for overall accesses
system.l3.overall_mshr_miss_rate::cpu1.data     0.081239                       # mshr miss rate for overall accesses
system.l3.overall_mshr_miss_rate::cpu2.inst     0.995366                       # mshr miss rate for overall accesses
system.l3.overall_mshr_miss_rate::cpu2.data     0.081316                       # mshr miss rate for overall accesses
system.l3.overall_mshr_miss_rate::cpu3.inst     0.995362                       # mshr miss rate for overall accesses
system.l3.overall_mshr_miss_rate::cpu3.data     0.081292                       # mshr miss rate for overall accesses
system.l3.overall_mshr_miss_rate::total      0.084780                       # mshr miss rate for overall accesses
system.l3.ReadExReq_avg_mshr_miss_latency::cpu0.data 95040.851089                       # average ReadExReq mshr miss latency
system.l3.ReadExReq_avg_mshr_miss_latency::cpu1.data 87610.978480                       # average ReadExReq mshr miss latency
system.l3.ReadExReq_avg_mshr_miss_latency::cpu2.data 89341.390094                       # average ReadExReq mshr miss latency
system.l3.ReadExReq_avg_mshr_miss_latency::cpu3.data 93395.224672                       # average ReadExReq mshr miss latency
system.l3.ReadExReq_avg_mshr_miss_latency::total 91347.167611                       # average ReadExReq mshr miss latency
system.l3.ReadSharedReq_avg_mshr_miss_latency::cpu0.inst 85344.419385                       # average ReadSharedReq mshr miss latency
system.l3.ReadSharedReq_avg_mshr_miss_latency::cpu0.data 97996.183246                       # average ReadSharedReq mshr miss latency
system.l3.ReadSharedReq_avg_mshr_miss_latency::cpu1.inst 89774.734827                       # average ReadSharedReq mshr miss latency
system.l3.ReadSharedReq_avg_mshr_miss_latency::cpu1.data 101832.020513                       # average ReadSharedReq mshr miss latency
system.l3.ReadSharedReq_avg_mshr_miss_latency::cpu2.inst 85359.043762                       # average ReadSharedReq mshr miss latency
system.l3.ReadSharedReq_avg_mshr_miss_latency::cpu2.data 100012.631579                       # average ReadSharedReq mshr miss latency
system.l3.ReadSharedReq_avg_mshr_miss_latency::cpu3.inst 87036.563840                       # average ReadSharedReq mshr miss latency
system.l3.ReadSharedReq_avg_mshr_miss_latency::cpu3.data 107858.462766                       # average ReadSharedReq mshr miss latency
system.l3.ReadSharedReq_avg_mshr_miss_latency::total 89148.062315                       # average ReadSharedReq mshr miss latency
system.l3.demand_avg_mshr_miss_latency::cpu0.inst 85344.419385                       # average overall mshr miss latency
system.l3.demand_avg_mshr_miss_latency::cpu0.data 95065.432740                       # average overall mshr miss latency
system.l3.demand_avg_mshr_miss_latency::cpu1.inst 89774.734827                       # average overall mshr miss latency
system.l3.demand_avg_mshr_miss_latency::cpu1.data 87731.737197                       # average overall mshr miss latency
system.l3.demand_avg_mshr_miss_latency::cpu2.inst 85359.043762                       # average overall mshr miss latency
system.l3.demand_avg_mshr_miss_latency::cpu2.data 89429.682024                       # average overall mshr miss latency
system.l3.demand_avg_mshr_miss_latency::cpu3.inst 87036.563840                       # average overall mshr miss latency
system.l3.demand_avg_mshr_miss_latency::cpu3.data 93513.657041                       # average overall mshr miss latency
system.l3.demand_avg_mshr_miss_latency::total 91231.540799                       # average overall mshr miss latency
system.l3.overall_avg_mshr_miss_latency::cpu0.inst 85344.419385                       # average overall mshr miss latency
system.l3.overall_avg_mshr_miss_latency::cpu0.data 95065.432740                       # average overall mshr miss latency
system.l3.overall_avg_mshr_miss_latency::cpu1.inst 89774.734827                       # average overall mshr miss latency
system.l3.overall_avg_mshr_miss_latency::cpu1.data 87731.737197                       # average overall mshr miss latency
system.l3.overall_avg_mshr_miss_latency::cpu2.inst 85359.043762                       # average overall mshr miss latency
system.l3.overall_avg_mshr_miss_latency::cpu2.data 89429.682024                       # average overall mshr miss latency
system.l3.overall_avg_mshr_miss_latency::cpu3.inst 87036.563840                       # average overall mshr miss latency
system.l3.overall_avg_mshr_miss_latency::cpu3.data 93513.657041                       # average overall mshr miss latency
system.l3.overall_avg_mshr_miss_latency::total 91231.540799                       # average overall mshr miss latency
system.membus.snoop_filter.tot_requests         96141                       # Total number of requests made to the snoop filter.
system.membus.snoop_filter.hit_single_requests            0                       # Number of requests hitting in the snoop filter with a single holder of the requested data.
system.membus.snoop_filter.hit_multi_requests            0                       # Number of requests hitting in the snoop filter with multiple (>1) holders of the requested data.
system.membus.snoop_filter.tot_snoops               0                       # Total number of snoops made to the snoop filter.
system.membus.snoop_filter.hit_single_snoops            0                       # Number of snoops hitting in the snoop filter with a single holder of the requested data.
system.membus.snoop_filter.hit_multi_snoops            0                       # Number of snoops hitting in the snoop filter with multiple (>1) holders of the requested data.
system.membus.pwrStateResidencyTicks::UNDEFINED  26620007679                       # Cumulative time (in ticks) in various power states
system.membus.trans_dist::ReadResp               5055                       # Transaction distribution
system.membus.trans_dist::ReadExReq             91086                       # Transaction distribution
system.membus.trans_dist::ReadExResp            91086                       # Transaction distribution
system.membus.trans_dist::ReadSharedReq          5055                       # Transaction distribution
system.membus.pkt_count_system.l3.mem_side::system.mem_ctrls0.port        96192                       # Packet count per connected master and slave (bytes)
system.membus.pkt_count_system.l3.mem_side::system.mem_ctrls1.port        96090                       # Packet count per connected master and slave (bytes)
system.membus.pkt_count_system.l3.mem_side::total       192282                       # Packet count per connected master and slave (bytes)
system.membus.pkt_count::total                 192282                       # Packet count per connected master and slave (bytes)
system.membus.pkt_size_system.l3.mem_side::system.mem_ctrls0.port      3078144                       # Cumulative packet size per connected master and slave (bytes)
system.membus.pkt_size_system.l3.mem_side::system.mem_ctrls1.port      3074880                       # Cumulative packet size per connected master and slave (bytes)
system.membus.pkt_size_system.l3.mem_side::total      6153024                       # Cumulative packet size per connected master and slave (bytes)
system.membus.pkt_size::total                 6153024                       # Cumulative packet size per connected master and slave (bytes)
system.membus.snoops                                0                       # Total snoops (count)
system.membus.snoopTraffic                          0                       # Total snoop traffic (bytes)
system.membus.snoop_fanout::samples             96141                       # Request fanout histogram
system.membus.snoop_fanout::mean                    0                       # Request fanout histogram
system.membus.snoop_fanout::stdev                   0                       # Request fanout histogram
system.membus.snoop_fanout::underflows              0      0.00%      0.00% # Request fanout histogram
system.membus.snoop_fanout::0                   96141    100.00%    100.00% # Request fanout histogram
system.membus.snoop_fanout::1                       0      0.00%    100.00% # Request fanout histogram
system.membus.snoop_fanout::overflows               0      0.00%    100.00% # Request fanout histogram
system.membus.snoop_fanout::min_value               0                       # Request fanout histogram
system.membus.snoop_fanout::max_value               0                       # Request fanout histogram
system.membus.snoop_fanout::total               96141                       # Request fanout histogram
system.membus.reqLayer8.occupancy            72445049                       # Layer occupancy (ticks)
system.membus.reqLayer8.utilization               0.3                       # Layer utilization (%)
system.membus.reqLayer9.occupancy            72301109                       # Layer occupancy (ticks)
system.membus.reqLayer9.utilization               0.3                       # Layer utilization (%)
system.membus.respLayer1.occupancy          521825072                       # Layer occupancy (ticks)
system.membus.respLayer1.utilization              2.0                       # Layer utilization (%)
system.tol3bus.snoop_filter.tot_requests      2249617                       # Total number of requests made to the snoop filter.
system.tol3bus.snoop_filter.hit_single_requests      1115610                       # Number of requests hitting in the snoop filter with a single holder of the requested data.
system.tol3bus.snoop_filter.hit_multi_requests            0                       # Number of requests hitting in the snoop filter with multiple (>1) holders of the requested data.
system.tol3bus.snoop_filter.tot_snoops              1                       # Total number of snoops made to the snoop filter.
system.tol3bus.snoop_filter.hit_single_snoops            1                       # Number of snoops hitting in the snoop filter with a single holder of the requested data.
system.tol3bus.snoop_filter.hit_multi_snoops            0                       # Number of snoops hitting in the snoop filter with multiple (>1) holders of the requested data.
system.tol3bus.pwrStateResidencyTicks::UNDEFINED  26620007679                       # Cumulative time (in ticks) in various power states
system.tol3bus.trans_dist::ReadResp           1042903                       # Transaction distribution
system.tol3bus.trans_dist::WritebackDirty      1112761                       # Transaction distribution
system.tol3bus.trans_dist::CleanEvict            2850                       # Transaction distribution
system.tol3bus.trans_dist::ReadExReq            91104                       # Transaction distribution
system.tol3bus.trans_dist::ReadExResp           91104                       # Transaction distribution
system.tol3bus.trans_dist::ReadSharedReq      1042903                       # Transaction distribution
system.tol3bus.pkt_count_system.cpu0.l2.mem_side::system.l3.cpu_side       845215                       # Packet count per connected master and slave (bytes)
system.tol3bus.pkt_count_system.cpu1.l2.mem_side::system.l3.cpu_side       846641                       # Packet count per connected master and slave (bytes)
system.tol3bus.pkt_count_system.cpu2.l2.mem_side::system.l3.cpu_side       845855                       # Packet count per connected master and slave (bytes)
system.tol3bus.pkt_count_system.cpu3.l2.mem_side::system.l3.cpu_side       845913                       # Packet count per connected master and slave (bytes)
system.tol3bus.pkt_count::total               3383624                       # Packet count per connected master and slave (bytes)
system.tol3bus.pkt_size_system.cpu0.l2.mem_side::system.l3.cpu_side     35918848                       # Cumulative packet size per connected master and slave (bytes)
system.tol3bus.pkt_size_system.cpu1.l2.mem_side::system.l3.cpu_side     35979584                       # Cumulative packet size per connected master and slave (bytes)
system.tol3bus.pkt_size_system.cpu2.l2.mem_side::system.l3.cpu_side     35946048                       # Cumulative packet size per connected master and slave (bytes)
system.tol3bus.pkt_size_system.cpu3.l2.mem_side::system.l3.cpu_side     35948672                       # Cumulative packet size per connected master and slave (bytes)
system.tol3bus.pkt_size::total              143793152                       # Cumulative packet size per connected master and slave (bytes)
system.tol3bus.snoops                               1                       # Total snoops (count)
system.tol3bus.snoopTraffic                         0                       # Total snoop traffic (bytes)
system.tol3bus.snoop_fanout::samples          1134008                       # Request fanout histogram
system.tol3bus.snoop_fanout::mean            0.000001                       # Request fanout histogram
system.tol3bus.snoop_fanout::stdev           0.000939                       # Request fanout histogram
system.tol3bus.snoop_fanout::underflows             0      0.00%      0.00% # Request fanout histogram
system.tol3bus.snoop_fanout::0                1134007    100.00%    100.00% # Request fanout histogram
system.tol3bus.snoop_fanout::1                      1      0.00%    100.00% # Request fanout histogram
system.tol3bus.snoop_fanout::2                      0      0.00%    100.00% # Request fanout histogram
system.tol3bus.snoop_fanout::3                      0      0.00%    100.00% # Request fanout histogram
system.tol3bus.snoop_fanout::4                      0      0.00%    100.00% # Request fanout histogram
system.tol3bus.snoop_fanout::overflows              0      0.00%    100.00% # Request fanout histogram
system.tol3bus.snoop_fanout::min_value              0                       # Request fanout histogram
system.tol3bus.snoop_fanout::max_value              1                       # Request fanout histogram
system.tol3bus.snoop_fanout::total            1134008                       # Request fanout histogram
system.tol3bus.reqLayer0.occupancy         1119671874                       # Layer occupancy (ticks)
system.tol3bus.reqLayer0.utilization              4.2                       # Layer utilization (%)
system.tol3bus.respLayer0.occupancy         188702974                       # Layer occupancy (ticks)
system.tol3bus.respLayer0.utilization             0.7                       # Layer utilization (%)
system.tol3bus.respLayer1.occupancy         189007042                       # Layer occupancy (ticks)
system.tol3bus.respLayer1.utilization             0.7                       # Layer utilization (%)
system.tol3bus.respLayer2.occupancy         188832218                       # Layer occupancy (ticks)
system.tol3bus.respLayer2.utilization             0.7                       # Layer utilization (%)
system.tol3bus.respLayer3.occupancy         188853504                       # Layer occupancy (ticks)
system.tol3bus.respLayer3.utilization             0.7                       # Layer utilization (%)

---------- End Simulation Statistics   ----------
