
---------- Begin Simulation Statistics ----------
sim_seconds                                  0.026611                       # Number of seconds simulated
sim_ticks                                 26611384311                       # Number of ticks simulated
final_tick                                26611384311                       # Number of ticks from beginning of simulation (restored from checkpoints and never reset)
sim_freq                                 1000000000000                       # Frequency of simulated ticks
host_inst_rate                                 174372                       # Simulator instruction rate (inst/s)
host_op_rate                                   257821                       # Simulator op (including micro ops) rate (op/s)
host_tick_rate                               11615073                       # Simulator tick rate (ticks/s)
host_mem_usage                                8678200                       # Number of bytes of host memory used
host_seconds                                  2291.11                       # Real time elapsed on the host
sim_insts                                   399505762                       # Number of instructions simulated
sim_ops                                     590695584                       # Number of ops (including micro ops) simulated
system.voltage_domain.voltage                       1                       # Voltage in Volts
system.clk_domain.clock                          1000                       # Clock period in ticks
system.mem_ctrls0.pwrStateResidencyTicks::UNDEFINED  26611384311                       # Cumulative time (in ticks) in various power states
system.mem_ctrls0.bytes_read::cpu0.inst         33920                       # Number of bytes read from this memory
system.mem_ctrls0.bytes_read::cpu0.data        734464                       # Number of bytes read from this memory
system.mem_ctrls0.bytes_read::cpu1.inst         34688                       # Number of bytes read from this memory
system.mem_ctrls0.bytes_read::cpu1.data        735232                       # Number of bytes read from this memory
system.mem_ctrls0.bytes_read::cpu2.inst         34496                       # Number of bytes read from this memory
system.mem_ctrls0.bytes_read::cpu2.data        735424                       # Number of bytes read from this memory
system.mem_ctrls0.bytes_read::cpu3.inst         34624                       # Number of bytes read from this memory
system.mem_ctrls0.bytes_read::cpu3.data        735232                       # Number of bytes read from this memory
system.mem_ctrls0.bytes_read::total           3078080                       # Number of bytes read from this memory
system.mem_ctrls0.bytes_inst_read::cpu0.inst        33920                       # Number of instructions bytes read from this memory
system.mem_ctrls0.bytes_inst_read::cpu1.inst        34688                       # Number of instructions bytes read from this memory
system.mem_ctrls0.bytes_inst_read::cpu2.inst        34496                       # Number of instructions bytes read from this memory
system.mem_ctrls0.bytes_inst_read::cpu3.inst        34624                       # Number of instructions bytes read from this memory
system.mem_ctrls0.bytes_inst_read::total       137728                       # Number of instructions bytes read from this memory
system.mem_ctrls0.num_reads::cpu0.inst            530                       # Number of read requests responded to by this memory
system.mem_ctrls0.num_reads::cpu0.data          11476                       # Number of read requests responded to by this memory
system.mem_ctrls0.num_reads::cpu1.inst            542                       # Number of read requests responded to by this memory
system.mem_ctrls0.num_reads::cpu1.data          11488                       # Number of read requests responded to by this memory
system.mem_ctrls0.num_reads::cpu2.inst            539                       # Number of read requests responded to by this memory
system.mem_ctrls0.num_reads::cpu2.data          11491                       # Number of read requests responded to by this memory
system.mem_ctrls0.num_reads::cpu3.inst            541                       # Number of read requests responded to by this memory
system.mem_ctrls0.num_reads::cpu3.data          11488                       # Number of read requests responded to by this memory
system.mem_ctrls0.num_reads::total              48095                       # Number of read requests responded to by this memory
system.mem_ctrls0.bw_read::cpu0.inst          1274642                       # Total read bandwidth from this memory (bytes/s)
system.mem_ctrls0.bw_read::cpu0.data         27599616                       # Total read bandwidth from this memory (bytes/s)
system.mem_ctrls0.bw_read::cpu1.inst          1303502                       # Total read bandwidth from this memory (bytes/s)
system.mem_ctrls0.bw_read::cpu1.data         27628476                       # Total read bandwidth from this memory (bytes/s)
system.mem_ctrls0.bw_read::cpu2.inst          1296287                       # Total read bandwidth from this memory (bytes/s)
system.mem_ctrls0.bw_read::cpu2.data         27635691                       # Total read bandwidth from this memory (bytes/s)
system.mem_ctrls0.bw_read::cpu3.inst          1301097                       # Total read bandwidth from this memory (bytes/s)
system.mem_ctrls0.bw_read::cpu3.data         27628476                       # Total read bandwidth from this memory (bytes/s)
system.mem_ctrls0.bw_read::total            115667790                       # Total read bandwidth from this memory (bytes/s)
system.mem_ctrls0.bw_inst_read::cpu0.inst      1274642                       # Instruction read bandwidth from this memory (bytes/s)
system.mem_ctrls0.bw_inst_read::cpu1.inst      1303502                       # Instruction read bandwidth from this memory (bytes/s)
system.mem_ctrls0.bw_inst_read::cpu2.inst      1296287                       # Instruction read bandwidth from this memory (bytes/s)
system.mem_ctrls0.bw_inst_read::cpu3.inst      1301097                       # Instruction read bandwidth from this memory (bytes/s)
system.mem_ctrls0.bw_inst_read::total         5175529                       # Instruction read bandwidth from this memory (bytes/s)
system.mem_ctrls0.bw_total::cpu0.inst         1274642                       # Total bandwidth to/from this memory (bytes/s)
system.mem_ctrls0.bw_total::cpu0.data        27599616                       # Total bandwidth to/from this memory (bytes/s)
system.mem_ctrls0.bw_total::cpu1.inst         1303502                       # Total bandwidth to/from this memory (bytes/s)
system.mem_ctrls0.bw_total::cpu1.data        27628476                       # Total bandwidth to/from this memory (bytes/s)
system.mem_ctrls0.bw_total::cpu2.inst         1296287                       # Total bandwidth to/from this memory (bytes/s)
system.mem_ctrls0.bw_total::cpu2.data        27635691                       # Total bandwidth to/from this memory (bytes/s)
system.mem_ctrls0.bw_total::cpu3.inst         1301097                       # Total bandwidth to/from this memory (bytes/s)
system.mem_ctrls0.bw_total::cpu3.data        27628476                       # Total bandwidth to/from this memory (bytes/s)
system.mem_ctrls0.bw_total::total           115667790                       # Total bandwidth to/from this memory (bytes/s)
system.mem_ctrls0.readReqs                      48095                       # Number of read requests accepted
system.mem_ctrls0.writeReqs                         0                       # Number of write requests accepted
system.mem_ctrls0.readBursts                    48095                       # Number of DRAM read bursts, including those serviced by the write queue
system.mem_ctrls0.writeBursts                       0                       # Number of DRAM write bursts, including those merged in the write queue
system.mem_ctrls0.bytesReadDRAM               3078080                       # Total number of bytes read from DRAM
system.mem_ctrls0.bytesReadWrQ                      0                       # Total number of bytes read from write queue
system.mem_ctrls0.bytesWritten                      0                       # Total number of bytes written to DRAM
system.mem_ctrls0.bytesReadSys                3078080                       # Total read bytes from the system interface side
system.mem_ctrls0.bytesWrittenSys                   0                       # Total written bytes from the system interface side
system.mem_ctrls0.servicedByWrQ                     0                       # Number of DRAM read bursts serviced by the write queue
system.mem_ctrls0.mergedWrBursts                    0                       # Number of DRAM write bursts merged with an existing one
system.mem_ctrls0.neitherReadNorWriteReqs            0                       # Number of requests that are neither read nor write
system.mem_ctrls0.perBankRdBursts::0             2803                       # Per bank write bursts
system.mem_ctrls0.perBankRdBursts::1             3068                       # Per bank write bursts
system.mem_ctrls0.perBankRdBursts::2             3124                       # Per bank write bursts
system.mem_ctrls0.perBankRdBursts::3             3210                       # Per bank write bursts
system.mem_ctrls0.perBankRdBursts::4             3223                       # Per bank write bursts
system.mem_ctrls0.perBankRdBursts::5             3285                       # Per bank write bursts
system.mem_ctrls0.perBankRdBursts::6             3343                       # Per bank write bursts
system.mem_ctrls0.perBankRdBursts::7             3263                       # Per bank write bursts
system.mem_ctrls0.perBankRdBursts::8             3276                       # Per bank write bursts
system.mem_ctrls0.perBankRdBursts::9             2951                       # Per bank write bursts
system.mem_ctrls0.perBankRdBursts::10            2820                       # Per bank write bursts
system.mem_ctrls0.perBankRdBursts::11            2818                       # Per bank write bursts
system.mem_ctrls0.perBankRdBursts::12            2792                       # Per bank write bursts
system.mem_ctrls0.perBankRdBursts::13            2741                       # Per bank write bursts
system.mem_ctrls0.perBankRdBursts::14            2676                       # Per bank write bursts
system.mem_ctrls0.perBankRdBursts::15            2702                       # Per bank write bursts
system.mem_ctrls0.perBankWrBursts::0                0                       # Per bank write bursts
system.mem_ctrls0.perBankWrBursts::1                0                       # Per bank write bursts
system.mem_ctrls0.perBankWrBursts::2                0                       # Per bank write bursts
system.mem_ctrls0.perBankWrBursts::3                0                       # Per bank write bursts
system.mem_ctrls0.perBankWrBursts::4                0                       # Per bank write bursts
system.mem_ctrls0.perBankWrBursts::5                0                       # Per bank write bursts
system.mem_ctrls0.perBankWrBursts::6                0                       # Per bank write bursts
system.mem_ctrls0.perBankWrBursts::7                0                       # Per bank write bursts
system.mem_ctrls0.perBankWrBursts::8                0                       # Per bank write bursts
system.mem_ctrls0.perBankWrBursts::9                0                       # Per bank write bursts
system.mem_ctrls0.perBankWrBursts::10               0                       # Per bank write bursts
system.mem_ctrls0.perBankWrBursts::11               0                       # Per bank write bursts
system.mem_ctrls0.perBankWrBursts::12               0                       # Per bank write bursts
system.mem_ctrls0.perBankWrBursts::13               0                       # Per bank write bursts
system.mem_ctrls0.perBankWrBursts::14               0                       # Per bank write bursts
system.mem_ctrls0.perBankWrBursts::15               0                       # Per bank write bursts
system.mem_ctrls0.numRdRetry                        0                       # Number of times read queue was full causing retry
system.mem_ctrls0.numWrRetry                        0                       # Number of times write queue was full causing retry
system.mem_ctrls0.totGap                  15493194297                       # Total gap between requests
system.mem_ctrls0.readPktSize::0                    0                       # Read request sizes (log2)
system.mem_ctrls0.readPktSize::1                    0                       # Read request sizes (log2)
system.mem_ctrls0.readPktSize::2                    0                       # Read request sizes (log2)
system.mem_ctrls0.readPktSize::3                    0                       # Read request sizes (log2)
system.mem_ctrls0.readPktSize::4                    0                       # Read request sizes (log2)
system.mem_ctrls0.readPktSize::5                    0                       # Read request sizes (log2)
system.mem_ctrls0.readPktSize::6                48095                       # Read request sizes (log2)
system.mem_ctrls0.writePktSize::0                   0                       # Write request sizes (log2)
system.mem_ctrls0.writePktSize::1                   0                       # Write request sizes (log2)
system.mem_ctrls0.writePktSize::2                   0                       # Write request sizes (log2)
system.mem_ctrls0.writePktSize::3                   0                       # Write request sizes (log2)
system.mem_ctrls0.writePktSize::4                   0                       # Write request sizes (log2)
system.mem_ctrls0.writePktSize::5                   0                       # Write request sizes (log2)
system.mem_ctrls0.writePktSize::6                   0                       # Write request sizes (log2)
system.mem_ctrls0.rdQLenPdf::0                  26825                       # What read queue length does an incoming req see
system.mem_ctrls0.rdQLenPdf::1                  14738                       # What read queue length does an incoming req see
system.mem_ctrls0.rdQLenPdf::2                   5568                       # What read queue length does an incoming req see
system.mem_ctrls0.rdQLenPdf::3                    796                       # What read queue length does an incoming req see
system.mem_ctrls0.rdQLenPdf::4                    111                       # What read queue length does an incoming req see
system.mem_ctrls0.rdQLenPdf::5                     42                       # What read queue length does an incoming req see
system.mem_ctrls0.rdQLenPdf::6                     11                       # What read queue length does an incoming req see
system.mem_ctrls0.rdQLenPdf::7                      3                       # What read queue length does an incoming req see
system.mem_ctrls0.rdQLenPdf::8                      1                       # What read queue length does an incoming req see
system.mem_ctrls0.rdQLenPdf::9                      0                       # What read queue length does an incoming req see
system.mem_ctrls0.rdQLenPdf::10                     0                       # What read queue length does an incoming req see
system.mem_ctrls0.rdQLenPdf::11                     0                       # What read queue length does an incoming req see
system.mem_ctrls0.rdQLenPdf::12                     0                       # What read queue length does an incoming req see
system.mem_ctrls0.rdQLenPdf::13                     0                       # What read queue length does an incoming req see
system.mem_ctrls0.rdQLenPdf::14                     0                       # What read queue length does an incoming req see
system.mem_ctrls0.rdQLenPdf::15                     0                       # What read queue length does an incoming req see
system.mem_ctrls0.rdQLenPdf::16                     0                       # What read queue length does an incoming req see
system.mem_ctrls0.rdQLenPdf::17                     0                       # What read queue length does an incoming req see
system.mem_ctrls0.rdQLenPdf::18                     0                       # What read queue length does an incoming req see
system.mem_ctrls0.rdQLenPdf::19                     0                       # What read queue length does an incoming req see
system.mem_ctrls0.rdQLenPdf::20                     0                       # What read queue length does an incoming req see
system.mem_ctrls0.rdQLenPdf::21                     0                       # What read queue length does an incoming req see
system.mem_ctrls0.rdQLenPdf::22                     0                       # What read queue length does an incoming req see
system.mem_ctrls0.rdQLenPdf::23                     0                       # What read queue length does an incoming req see
system.mem_ctrls0.rdQLenPdf::24                     0                       # What read queue length does an incoming req see
system.mem_ctrls0.rdQLenPdf::25                     0                       # What read queue length does an incoming req see
system.mem_ctrls0.rdQLenPdf::26                     0                       # What read queue length does an incoming req see
system.mem_ctrls0.rdQLenPdf::27                     0                       # What read queue length does an incoming req see
system.mem_ctrls0.rdQLenPdf::28                     0                       # What read queue length does an incoming req see
system.mem_ctrls0.rdQLenPdf::29                     0                       # What read queue length does an incoming req see
system.mem_ctrls0.rdQLenPdf::30                     0                       # What read queue length does an incoming req see
system.mem_ctrls0.rdQLenPdf::31                     0                       # What read queue length does an incoming req see
system.mem_ctrls0.wrQLenPdf::0                      0                       # What write queue length does an incoming req see
system.mem_ctrls0.wrQLenPdf::1                      0                       # What write queue length does an incoming req see
system.mem_ctrls0.wrQLenPdf::2                      0                       # What write queue length does an incoming req see
system.mem_ctrls0.wrQLenPdf::3                      0                       # What write queue length does an incoming req see
system.mem_ctrls0.wrQLenPdf::4                      0                       # What write queue length does an incoming req see
system.mem_ctrls0.wrQLenPdf::5                      0                       # What write queue length does an incoming req see
system.mem_ctrls0.wrQLenPdf::6                      0                       # What write queue length does an incoming req see
system.mem_ctrls0.wrQLenPdf::7                      0                       # What write queue length does an incoming req see
system.mem_ctrls0.wrQLenPdf::8                      0                       # What write queue length does an incoming req see
system.mem_ctrls0.wrQLenPdf::9                      0                       # What write queue length does an incoming req see
system.mem_ctrls0.wrQLenPdf::10                     0                       # What write queue length does an incoming req see
system.mem_ctrls0.wrQLenPdf::11                     0                       # What write queue length does an incoming req see
system.mem_ctrls0.wrQLenPdf::12                     0                       # What write queue length does an incoming req see
system.mem_ctrls0.wrQLenPdf::13                     0                       # What write queue length does an incoming req see
system.mem_ctrls0.wrQLenPdf::14                     0                       # What write queue length does an incoming req see
system.mem_ctrls0.wrQLenPdf::15                     0                       # What write queue length does an incoming req see
system.mem_ctrls0.wrQLenPdf::16                     0                       # What write queue length does an incoming req see
system.mem_ctrls0.wrQLenPdf::17                     0                       # What write queue length does an incoming req see
system.mem_ctrls0.wrQLenPdf::18                     0                       # What write queue length does an incoming req see
system.mem_ctrls0.wrQLenPdf::19                     0                       # What write queue length does an incoming req see
system.mem_ctrls0.wrQLenPdf::20                     0                       # What write queue length does an incoming req see
system.mem_ctrls0.wrQLenPdf::21                     0                       # What write queue length does an incoming req see
system.mem_ctrls0.wrQLenPdf::22                     0                       # What write queue length does an incoming req see
system.mem_ctrls0.wrQLenPdf::23                     0                       # What write queue length does an incoming req see
system.mem_ctrls0.wrQLenPdf::24                     0                       # What write queue length does an incoming req see
system.mem_ctrls0.wrQLenPdf::25                     0                       # What write queue length does an incoming req see
system.mem_ctrls0.wrQLenPdf::26                     0                       # What write queue length does an incoming req see
system.mem_ctrls0.wrQLenPdf::27                     0                       # What write queue length does an incoming req see
system.mem_ctrls0.wrQLenPdf::28                     0                       # What write queue length does an incoming req see
system.mem_ctrls0.wrQLenPdf::29                     0                       # What write queue length does an incoming req see
system.mem_ctrls0.wrQLenPdf::30                     0                       # What write queue length does an incoming req see
system.mem_ctrls0.wrQLenPdf::31                     0                       # What write queue length does an incoming req see
system.mem_ctrls0.wrQLenPdf::32                     0                       # What write queue length does an incoming req see
system.mem_ctrls0.wrQLenPdf::33                     0                       # What write queue length does an incoming req see
system.mem_ctrls0.wrQLenPdf::34                     0                       # What write queue length does an incoming req see
system.mem_ctrls0.wrQLenPdf::35                     0                       # What write queue length does an incoming req see
system.mem_ctrls0.wrQLenPdf::36                     0                       # What write queue length does an incoming req see
system.mem_ctrls0.wrQLenPdf::37                     0                       # What write queue length does an incoming req see
system.mem_ctrls0.wrQLenPdf::38                     0                       # What write queue length does an incoming req see
system.mem_ctrls0.wrQLenPdf::39                     0                       # What write queue length does an incoming req see
system.mem_ctrls0.wrQLenPdf::40                     0                       # What write queue length does an incoming req see
system.mem_ctrls0.wrQLenPdf::41                     0                       # What write queue length does an incoming req see
system.mem_ctrls0.wrQLenPdf::42                     0                       # What write queue length does an incoming req see
system.mem_ctrls0.wrQLenPdf::43                     0                       # What write queue length does an incoming req see
system.mem_ctrls0.wrQLenPdf::44                     0                       # What write queue length does an incoming req see
system.mem_ctrls0.wrQLenPdf::45                     0                       # What write queue length does an incoming req see
system.mem_ctrls0.wrQLenPdf::46                     0                       # What write queue length does an incoming req see
system.mem_ctrls0.wrQLenPdf::47                     0                       # What write queue length does an incoming req see
system.mem_ctrls0.wrQLenPdf::48                     0                       # What write queue length does an incoming req see
system.mem_ctrls0.wrQLenPdf::49                     0                       # What write queue length does an incoming req see
system.mem_ctrls0.wrQLenPdf::50                     0                       # What write queue length does an incoming req see
system.mem_ctrls0.wrQLenPdf::51                     0                       # What write queue length does an incoming req see
system.mem_ctrls0.wrQLenPdf::52                     0                       # What write queue length does an incoming req see
system.mem_ctrls0.wrQLenPdf::53                     0                       # What write queue length does an incoming req see
system.mem_ctrls0.wrQLenPdf::54                     0                       # What write queue length does an incoming req see
system.mem_ctrls0.wrQLenPdf::55                     0                       # What write queue length does an incoming req see
system.mem_ctrls0.wrQLenPdf::56                     0                       # What write queue length does an incoming req see
system.mem_ctrls0.wrQLenPdf::57                     0                       # What write queue length does an incoming req see
system.mem_ctrls0.wrQLenPdf::58                     0                       # What write queue length does an incoming req see
system.mem_ctrls0.wrQLenPdf::59                     0                       # What write queue length does an incoming req see
system.mem_ctrls0.wrQLenPdf::60                     0                       # What write queue length does an incoming req see
system.mem_ctrls0.wrQLenPdf::61                     0                       # What write queue length does an incoming req see
system.mem_ctrls0.wrQLenPdf::62                     0                       # What write queue length does an incoming req see
system.mem_ctrls0.wrQLenPdf::63                     0                       # What write queue length does an incoming req see
system.mem_ctrls0.bytesPerActivate::samples        24837                       # Bytes accessed per row activation
system.mem_ctrls0.bytesPerActivate::mean   123.931232                       # Bytes accessed per row activation
system.mem_ctrls0.bytesPerActivate::gmean    88.020979                       # Bytes accessed per row activation
system.mem_ctrls0.bytesPerActivate::stdev   172.886913                       # Bytes accessed per row activation
system.mem_ctrls0.bytesPerActivate::0-127        17967     72.34%     72.34% # Bytes accessed per row activation
system.mem_ctrls0.bytesPerActivate::128-255         4828     19.44%     91.78% # Bytes accessed per row activation
system.mem_ctrls0.bytesPerActivate::256-383          221      0.89%     92.67% # Bytes accessed per row activation
system.mem_ctrls0.bytesPerActivate::384-511          413      1.66%     94.33% # Bytes accessed per row activation
system.mem_ctrls0.bytesPerActivate::512-639          581      2.34%     96.67% # Bytes accessed per row activation
system.mem_ctrls0.bytesPerActivate::640-767          225      0.91%     97.58% # Bytes accessed per row activation
system.mem_ctrls0.bytesPerActivate::768-895           39      0.16%     97.73% # Bytes accessed per row activation
system.mem_ctrls0.bytesPerActivate::896-1023           23      0.09%     97.83% # Bytes accessed per row activation
system.mem_ctrls0.bytesPerActivate::1024-1151          540      2.17%    100.00% # Bytes accessed per row activation
system.mem_ctrls0.bytesPerActivate::total        24837                       # Bytes accessed per row activation
system.mem_ctrls0.totQLat                  1382620895                       # Total ticks spent queuing
system.mem_ctrls0.totMemAccLat             2284402145                       # Total ticks spent from burst creation until serviced by the DRAM
system.mem_ctrls0.totBusLat                 240475000                       # Total ticks spent in databus transfers
system.mem_ctrls0.avgQLat                    28747.71                       # Average queueing delay per DRAM burst
system.mem_ctrls0.avgBusLat                   5000.00                       # Average bus latency per DRAM burst
system.mem_ctrls0.avgMemAccLat               47497.71                       # Average memory access latency per DRAM burst
system.mem_ctrls0.avgRdBW                      115.67                       # Average DRAM read bandwidth in MiByte/s
system.mem_ctrls0.avgWrBW                        0.00                       # Average achieved write bandwidth in MiByte/s
system.mem_ctrls0.avgRdBWSys                   115.67                       # Average system read bandwidth in MiByte/s
system.mem_ctrls0.avgWrBWSys                     0.00                       # Average system write bandwidth in MiByte/s
system.mem_ctrls0.peakBW                     12800.00                       # Theoretical peak bandwidth in MiByte/s
system.mem_ctrls0.busUtil                        0.90                       # Data bus utilization in percentage
system.mem_ctrls0.busUtilRead                    0.90                       # Data bus utilization in percentage for reads
system.mem_ctrls0.busUtilWrite                   0.00                       # Data bus utilization in percentage for writes
system.mem_ctrls0.avgRdQLen                      1.17                       # Average read queue length when enqueuing
system.mem_ctrls0.avgWrQLen                      0.00                       # Average write queue length when enqueuing
system.mem_ctrls0.readRowHits                   23258                       # Number of row buffer hits during reads
system.mem_ctrls0.writeRowHits                      0                       # Number of row buffer hits during writes
system.mem_ctrls0.readRowHitRate                48.36                       # Row buffer hit rate for reads
system.mem_ctrls0.writeRowHitRate                 nan                       # Row buffer hit rate for writes
system.mem_ctrls0.avgGap                    322137.32                       # Average gap between requests
system.mem_ctrls0.pageHitRate                   48.36                       # Row buffer hit rate, read and write combined
system.mem_ctrls0_0.actEnergy                94769220                       # Energy for activate commands per rank (pJ)
system.mem_ctrls0_0.preEnergy                50371035                       # Energy for precharge commands per rank (pJ)
system.mem_ctrls0_0.readEnergy              180777660                       # Energy for read commands per rank (pJ)
system.mem_ctrls0_0.writeEnergy                     0                       # Energy for write commands per rank (pJ)
system.mem_ctrls0_0.refreshEnergy        315924960.000000                       # Energy for refresh commands per rank (pJ)
system.mem_ctrls0_0.actBackEnergy           428311680                       # Energy for active background per rank (pJ)
system.mem_ctrls0_0.preBackEnergy            19016160                       # Energy for precharge background per rank (pJ)
system.mem_ctrls0_0.actPowerDownEnergy     1284120510                       # Energy for active power-down per rank (pJ)
system.mem_ctrls0_0.prePowerDownEnergy       53584320                       # Energy for precharge power-down per rank (pJ)
system.mem_ctrls0_0.selfRefreshEnergy      5444494920                       # Energy for self refresh per rank (pJ)
system.mem_ctrls0_0.totalEnergy            7871370465                       # Total energy per rank (pJ)
system.mem_ctrls0_0.averagePower           295.789583                       # Core power per rank (mW)
system.mem_ctrls0_0.totalIdleTime         14512873672                       # Total Idle time Per DRAM Rank
system.mem_ctrls0_0.memoryStateTime::IDLE      5025233                       # Time in different power states
system.mem_ctrls0_0.memoryStateTime::REF    133694000                       # Time in different power states
system.mem_ctrls0_0.memoryStateTime::SREF  22666987811                       # Time in different power states
system.mem_ctrls0_0.memoryStateTime::PRE_PDN    139512182                       # Time in different power states
system.mem_ctrls0_0.memoryStateTime::ACT    849917447                       # Time in different power states
system.mem_ctrls0_0.memoryStateTime::ACT_PDN   2816247638                       # Time in different power states
system.mem_ctrls0_1.actEnergy                82566960                       # Energy for activate commands per rank (pJ)
system.mem_ctrls0_1.preEnergy                43885380                       # Energy for precharge commands per rank (pJ)
system.mem_ctrls0_1.readEnergy              162620640                       # Energy for read commands per rank (pJ)
system.mem_ctrls0_1.writeEnergy                     0                       # Energy for write commands per rank (pJ)
system.mem_ctrls0_1.refreshEnergy        288266160.000000                       # Energy for refresh commands per rank (pJ)
system.mem_ctrls0_1.actBackEnergy           388014390                       # Energy for active background per rank (pJ)
system.mem_ctrls0_1.preBackEnergy            16077120                       # Energy for precharge background per rank (pJ)
system.mem_ctrls0_1.actPowerDownEnergy     1156408020                       # Energy for active power-down per rank (pJ)
system.mem_ctrls0_1.prePowerDownEnergy       55105440                       # Energy for precharge power-down per rank (pJ)
system.mem_ctrls0_1.selfRefreshEnergy      5535464040                       # Energy for self refresh per rank (pJ)
system.mem_ctrls0_1.totalEnergy            7728408150                       # Total energy per rank (pJ)
system.mem_ctrls0_1.averagePower           290.417359                       # Core power per rank (mW)
system.mem_ctrls0_1.totalIdleTime         14609859096                       # Total Idle time Per DRAM Rank
system.mem_ctrls0_1.memoryStateTime::IDLE      5387910                       # Time in different power states
system.mem_ctrls0_1.memoryStateTime::REF    122012000                       # Time in different power states
system.mem_ctrls0_1.memoryStateTime::SREF  23039119811                       # Time in different power states
system.mem_ctrls0_1.memoryStateTime::PRE_PDN    143543191                       # Time in different power states
system.mem_ctrls0_1.memoryStateTime::ACT    765497099                       # Time in different power states
system.mem_ctrls0_1.memoryStateTime::ACT_PDN   2535824300                       # Time in different power states
system.mem_ctrls1.pwrStateResidencyTicks::UNDEFINED  26611384311                       # Cumulative time (in ticks) in various power states
system.mem_ctrls1.bytes_read::cpu0.inst         34688                       # Number of bytes read from this memory
system.mem_ctrls1.bytes_read::cpu0.data        735168                       # Number of bytes read from this memory
system.mem_ctrls1.bytes_read::cpu1.inst         33856                       # Number of bytes read from this memory
system.mem_ctrls1.bytes_read::cpu1.data        734464                       # Number of bytes read from this memory
system.mem_ctrls1.bytes_read::cpu2.inst         34048                       # Number of bytes read from this memory
system.mem_ctrls1.bytes_read::cpu2.data        734272                       # Number of bytes read from this memory
system.mem_ctrls1.bytes_read::cpu3.inst         34048                       # Number of bytes read from this memory
system.mem_ctrls1.bytes_read::cpu3.data        734144                       # Number of bytes read from this memory
system.mem_ctrls1.bytes_read::total           3074688                       # Number of bytes read from this memory
system.mem_ctrls1.bytes_inst_read::cpu0.inst        34688                       # Number of instructions bytes read from this memory
system.mem_ctrls1.bytes_inst_read::cpu1.inst        33856                       # Number of instructions bytes read from this memory
system.mem_ctrls1.bytes_inst_read::cpu2.inst        34048                       # Number of instructions bytes read from this memory
system.mem_ctrls1.bytes_inst_read::cpu3.inst        34048                       # Number of instructions bytes read from this memory
system.mem_ctrls1.bytes_inst_read::total       136640                       # Number of instructions bytes read from this memory
system.mem_ctrls1.num_reads::cpu0.inst            542                       # Number of read requests responded to by this memory
system.mem_ctrls1.num_reads::cpu0.data          11487                       # Number of read requests responded to by this memory
system.mem_ctrls1.num_reads::cpu1.inst            529                       # Number of read requests responded to by this memory
system.mem_ctrls1.num_reads::cpu1.data          11476                       # Number of read requests responded to by this memory
system.mem_ctrls1.num_reads::cpu2.inst            532                       # Number of read requests responded to by this memory
system.mem_ctrls1.num_reads::cpu2.data          11473                       # Number of read requests responded to by this memory
system.mem_ctrls1.num_reads::cpu3.inst            532                       # Number of read requests responded to by this memory
system.mem_ctrls1.num_reads::cpu3.data          11471                       # Number of read requests responded to by this memory
system.mem_ctrls1.num_reads::total              48042                       # Number of read requests responded to by this memory
system.mem_ctrls1.bw_read::cpu0.inst          1303502                       # Total read bandwidth from this memory (bytes/s)
system.mem_ctrls1.bw_read::cpu0.data         27626071                       # Total read bandwidth from this memory (bytes/s)
system.mem_ctrls1.bw_read::cpu1.inst          1272237                       # Total read bandwidth from this memory (bytes/s)
system.mem_ctrls1.bw_read::cpu1.data         27599616                       # Total read bandwidth from this memory (bytes/s)
system.mem_ctrls1.bw_read::cpu2.inst          1279452                       # Total read bandwidth from this memory (bytes/s)
system.mem_ctrls1.bw_read::cpu2.data         27592401                       # Total read bandwidth from this memory (bytes/s)
system.mem_ctrls1.bw_read::cpu3.inst          1279452                       # Total read bandwidth from this memory (bytes/s)
system.mem_ctrls1.bw_read::cpu3.data         27587592                       # Total read bandwidth from this memory (bytes/s)
system.mem_ctrls1.bw_read::total            115540325                       # Total read bandwidth from this memory (bytes/s)
system.mem_ctrls1.bw_inst_read::cpu0.inst      1303502                       # Instruction read bandwidth from this memory (bytes/s)
system.mem_ctrls1.bw_inst_read::cpu1.inst      1272237                       # Instruction read bandwidth from this memory (bytes/s)
system.mem_ctrls1.bw_inst_read::cpu2.inst      1279452                       # Instruction read bandwidth from this memory (bytes/s)
system.mem_ctrls1.bw_inst_read::cpu3.inst      1279452                       # Instruction read bandwidth from this memory (bytes/s)
system.mem_ctrls1.bw_inst_read::total         5134645                       # Instruction read bandwidth from this memory (bytes/s)
system.mem_ctrls1.bw_total::cpu0.inst         1303502                       # Total bandwidth to/from this memory (bytes/s)
system.mem_ctrls1.bw_total::cpu0.data        27626071                       # Total bandwidth to/from this memory (bytes/s)
system.mem_ctrls1.bw_total::cpu1.inst         1272237                       # Total bandwidth to/from this memory (bytes/s)
system.mem_ctrls1.bw_total::cpu1.data        27599616                       # Total bandwidth to/from this memory (bytes/s)
system.mem_ctrls1.bw_total::cpu2.inst         1279452                       # Total bandwidth to/from this memory (bytes/s)
system.mem_ctrls1.bw_total::cpu2.data        27592401                       # Total bandwidth to/from this memory (bytes/s)
system.mem_ctrls1.bw_total::cpu3.inst         1279452                       # Total bandwidth to/from this memory (bytes/s)
system.mem_ctrls1.bw_total::cpu3.data        27587592                       # Total bandwidth to/from this memory (bytes/s)
system.mem_ctrls1.bw_total::total           115540325                       # Total bandwidth to/from this memory (bytes/s)
system.mem_ctrls1.readReqs                      48042                       # Number of read requests accepted
system.mem_ctrls1.writeReqs                         0                       # Number of write requests accepted
system.mem_ctrls1.readBursts                    48042                       # Number of DRAM read bursts, including those serviced by the write queue
system.mem_ctrls1.writeBursts                       0                       # Number of DRAM write bursts, including those merged in the write queue
system.mem_ctrls1.bytesReadDRAM               3074688                       # Total number of bytes read from DRAM
system.mem_ctrls1.bytesReadWrQ                      0                       # Total number of bytes read from write queue
system.mem_ctrls1.bytesWritten                      0                       # Total number of bytes written to DRAM
system.mem_ctrls1.bytesReadSys                3074688                       # Total read bytes from the system interface side
system.mem_ctrls1.bytesWrittenSys                   0                       # Total written bytes from the system interface side
system.mem_ctrls1.servicedByWrQ                     0                       # Number of DRAM read bursts serviced by the write queue
system.mem_ctrls1.mergedWrBursts                    0                       # Number of DRAM write bursts merged with an existing one
system.mem_ctrls1.neitherReadNorWriteReqs            0                       # Number of requests that are neither read nor write
system.mem_ctrls1.perBankRdBursts::0             2793                       # Per bank write bursts
system.mem_ctrls1.perBankRdBursts::1             3070                       # Per bank write bursts
system.mem_ctrls1.perBankRdBursts::2             3122                       # Per bank write bursts
system.mem_ctrls1.perBankRdBursts::3             3201                       # Per bank write bursts
system.mem_ctrls1.perBankRdBursts::4             3223                       # Per bank write bursts
system.mem_ctrls1.perBankRdBursts::5             3265                       # Per bank write bursts
system.mem_ctrls1.perBankRdBursts::6             3346                       # Per bank write bursts
system.mem_ctrls1.perBankRdBursts::7             3257                       # Per bank write bursts
system.mem_ctrls1.perBankRdBursts::8             3283                       # Per bank write bursts
system.mem_ctrls1.perBankRdBursts::9             2941                       # Per bank write bursts
system.mem_ctrls1.perBankRdBursts::10            2817                       # Per bank write bursts
system.mem_ctrls1.perBankRdBursts::11            2832                       # Per bank write bursts
system.mem_ctrls1.perBankRdBursts::12            2795                       # Per bank write bursts
system.mem_ctrls1.perBankRdBursts::13            2730                       # Per bank write bursts
system.mem_ctrls1.perBankRdBursts::14            2682                       # Per bank write bursts
system.mem_ctrls1.perBankRdBursts::15            2685                       # Per bank write bursts
system.mem_ctrls1.perBankWrBursts::0                0                       # Per bank write bursts
system.mem_ctrls1.perBankWrBursts::1                0                       # Per bank write bursts
system.mem_ctrls1.perBankWrBursts::2                0                       # Per bank write bursts
system.mem_ctrls1.perBankWrBursts::3                0                       # Per bank write bursts
system.mem_ctrls1.perBankWrBursts::4                0                       # Per bank write bursts
system.mem_ctrls1.perBankWrBursts::5                0                       # Per bank write bursts
system.mem_ctrls1.perBankWrBursts::6                0                       # Per bank write bursts
system.mem_ctrls1.perBankWrBursts::7                0                       # Per bank write bursts
system.mem_ctrls1.perBankWrBursts::8                0                       # Per bank write bursts
system.mem_ctrls1.perBankWrBursts::9                0                       # Per bank write bursts
system.mem_ctrls1.perBankWrBursts::10               0                       # Per bank write bursts
system.mem_ctrls1.perBankWrBursts::11               0                       # Per bank write bursts
system.mem_ctrls1.perBankWrBursts::12               0                       # Per bank write bursts
system.mem_ctrls1.perBankWrBursts::13               0                       # Per bank write bursts
system.mem_ctrls1.perBankWrBursts::14               0                       # Per bank write bursts
system.mem_ctrls1.perBankWrBursts::15               0                       # Per bank write bursts
system.mem_ctrls1.numRdRetry                        0                       # Number of times read queue was full causing retry
system.mem_ctrls1.numWrRetry                        0                       # Number of times write queue was full causing retry
system.mem_ctrls1.totGap                  15495871263                       # Total gap between requests
system.mem_ctrls1.readPktSize::0                    0                       # Read request sizes (log2)
system.mem_ctrls1.readPktSize::1                    0                       # Read request sizes (log2)
system.mem_ctrls1.readPktSize::2                    0                       # Read request sizes (log2)
system.mem_ctrls1.readPktSize::3                    0                       # Read request sizes (log2)
system.mem_ctrls1.readPktSize::4                    0                       # Read request sizes (log2)
system.mem_ctrls1.readPktSize::5                    0                       # Read request sizes (log2)
system.mem_ctrls1.readPktSize::6                48042                       # Read request sizes (log2)
system.mem_ctrls1.writePktSize::0                   0                       # Write request sizes (log2)
system.mem_ctrls1.writePktSize::1                   0                       # Write request sizes (log2)
system.mem_ctrls1.writePktSize::2                   0                       # Write request sizes (log2)
system.mem_ctrls1.writePktSize::3                   0                       # Write request sizes (log2)
system.mem_ctrls1.writePktSize::4                   0                       # Write request sizes (log2)
system.mem_ctrls1.writePktSize::5                   0                       # Write request sizes (log2)
system.mem_ctrls1.writePktSize::6                   0                       # Write request sizes (log2)
system.mem_ctrls1.rdQLenPdf::0                  26778                       # What read queue length does an incoming req see
system.mem_ctrls1.rdQLenPdf::1                  14730                       # What read queue length does an incoming req see
system.mem_ctrls1.rdQLenPdf::2                   5673                       # What read queue length does an incoming req see
system.mem_ctrls1.rdQLenPdf::3                    739                       # What read queue length does an incoming req see
system.mem_ctrls1.rdQLenPdf::4                     79                       # What read queue length does an incoming req see
system.mem_ctrls1.rdQLenPdf::5                     27                       # What read queue length does an incoming req see
system.mem_ctrls1.rdQLenPdf::6                      7                       # What read queue length does an incoming req see
system.mem_ctrls1.rdQLenPdf::7                      5                       # What read queue length does an incoming req see
system.mem_ctrls1.rdQLenPdf::8                      4                       # What read queue length does an incoming req see
system.mem_ctrls1.rdQLenPdf::9                      0                       # What read queue length does an incoming req see
system.mem_ctrls1.rdQLenPdf::10                     0                       # What read queue length does an incoming req see
system.mem_ctrls1.rdQLenPdf::11                     0                       # What read queue length does an incoming req see
system.mem_ctrls1.rdQLenPdf::12                     0                       # What read queue length does an incoming req see
system.mem_ctrls1.rdQLenPdf::13                     0                       # What read queue length does an incoming req see
system.mem_ctrls1.rdQLenPdf::14                     0                       # What read queue length does an incoming req see
system.mem_ctrls1.rdQLenPdf::15                     0                       # What read queue length does an incoming req see
system.mem_ctrls1.rdQLenPdf::16                     0                       # What read queue length does an incoming req see
system.mem_ctrls1.rdQLenPdf::17                     0                       # What read queue length does an incoming req see
system.mem_ctrls1.rdQLenPdf::18                     0                       # What read queue length does an incoming req see
system.mem_ctrls1.rdQLenPdf::19                     0                       # What read queue length does an incoming req see
system.mem_ctrls1.rdQLenPdf::20                     0                       # What read queue length does an incoming req see
system.mem_ctrls1.rdQLenPdf::21                     0                       # What read queue length does an incoming req see
system.mem_ctrls1.rdQLenPdf::22                     0                       # What read queue length does an incoming req see
system.mem_ctrls1.rdQLenPdf::23                     0                       # What read queue length does an incoming req see
system.mem_ctrls1.rdQLenPdf::24                     0                       # What read queue length does an incoming req see
system.mem_ctrls1.rdQLenPdf::25                     0                       # What read queue length does an incoming req see
system.mem_ctrls1.rdQLenPdf::26                     0                       # What read queue length does an incoming req see
system.mem_ctrls1.rdQLenPdf::27                     0                       # What read queue length does an incoming req see
system.mem_ctrls1.rdQLenPdf::28                     0                       # What read queue length does an incoming req see
system.mem_ctrls1.rdQLenPdf::29                     0                       # What read queue length does an incoming req see
system.mem_ctrls1.rdQLenPdf::30                     0                       # What read queue length does an incoming req see
system.mem_ctrls1.rdQLenPdf::31                     0                       # What read queue length does an incoming req see
system.mem_ctrls1.wrQLenPdf::0                      0                       # What write queue length does an incoming req see
system.mem_ctrls1.wrQLenPdf::1                      0                       # What write queue length does an incoming req see
system.mem_ctrls1.wrQLenPdf::2                      0                       # What write queue length does an incoming req see
system.mem_ctrls1.wrQLenPdf::3                      0                       # What write queue length does an incoming req see
system.mem_ctrls1.wrQLenPdf::4                      0                       # What write queue length does an incoming req see
system.mem_ctrls1.wrQLenPdf::5                      0                       # What write queue length does an incoming req see
system.mem_ctrls1.wrQLenPdf::6                      0                       # What write queue length does an incoming req see
system.mem_ctrls1.wrQLenPdf::7                      0                       # What write queue length does an incoming req see
system.mem_ctrls1.wrQLenPdf::8                      0                       # What write queue length does an incoming req see
system.mem_ctrls1.wrQLenPdf::9                      0                       # What write queue length does an incoming req see
system.mem_ctrls1.wrQLenPdf::10                     0                       # What write queue length does an incoming req see
system.mem_ctrls1.wrQLenPdf::11                     0                       # What write queue length does an incoming req see
system.mem_ctrls1.wrQLenPdf::12                     0                       # What write queue length does an incoming req see
system.mem_ctrls1.wrQLenPdf::13                     0                       # What write queue length does an incoming req see
system.mem_ctrls1.wrQLenPdf::14                     0                       # What write queue length does an incoming req see
system.mem_ctrls1.wrQLenPdf::15                     0                       # What write queue length does an incoming req see
system.mem_ctrls1.wrQLenPdf::16                     0                       # What write queue length does an incoming req see
system.mem_ctrls1.wrQLenPdf::17                     0                       # What write queue length does an incoming req see
system.mem_ctrls1.wrQLenPdf::18                     0                       # What write queue length does an incoming req see
system.mem_ctrls1.wrQLenPdf::19                     0                       # What write queue length does an incoming req see
system.mem_ctrls1.wrQLenPdf::20                     0                       # What write queue length does an incoming req see
system.mem_ctrls1.wrQLenPdf::21                     0                       # What write queue length does an incoming req see
system.mem_ctrls1.wrQLenPdf::22                     0                       # What write queue length does an incoming req see
system.mem_ctrls1.wrQLenPdf::23                     0                       # What write queue length does an incoming req see
system.mem_ctrls1.wrQLenPdf::24                     0                       # What write queue length does an incoming req see
system.mem_ctrls1.wrQLenPdf::25                     0                       # What write queue length does an incoming req see
system.mem_ctrls1.wrQLenPdf::26                     0                       # What write queue length does an incoming req see
system.mem_ctrls1.wrQLenPdf::27                     0                       # What write queue length does an incoming req see
system.mem_ctrls1.wrQLenPdf::28                     0                       # What write queue length does an incoming req see
system.mem_ctrls1.wrQLenPdf::29                     0                       # What write queue length does an incoming req see
system.mem_ctrls1.wrQLenPdf::30                     0                       # What write queue length does an incoming req see
system.mem_ctrls1.wrQLenPdf::31                     0                       # What write queue length does an incoming req see
system.mem_ctrls1.wrQLenPdf::32                     0                       # What write queue length does an incoming req see
system.mem_ctrls1.wrQLenPdf::33                     0                       # What write queue length does an incoming req see
system.mem_ctrls1.wrQLenPdf::34                     0                       # What write queue length does an incoming req see
system.mem_ctrls1.wrQLenPdf::35                     0                       # What write queue length does an incoming req see
system.mem_ctrls1.wrQLenPdf::36                     0                       # What write queue length does an incoming req see
system.mem_ctrls1.wrQLenPdf::37                     0                       # What write queue length does an incoming req see
system.mem_ctrls1.wrQLenPdf::38                     0                       # What write queue length does an incoming req see
system.mem_ctrls1.wrQLenPdf::39                     0                       # What write queue length does an incoming req see
system.mem_ctrls1.wrQLenPdf::40                     0                       # What write queue length does an incoming req see
system.mem_ctrls1.wrQLenPdf::41                     0                       # What write queue length does an incoming req see
system.mem_ctrls1.wrQLenPdf::42                     0                       # What write queue length does an incoming req see
system.mem_ctrls1.wrQLenPdf::43                     0                       # What write queue length does an incoming req see
system.mem_ctrls1.wrQLenPdf::44                     0                       # What write queue length does an incoming req see
system.mem_ctrls1.wrQLenPdf::45                     0                       # What write queue length does an incoming req see
system.mem_ctrls1.wrQLenPdf::46                     0                       # What write queue length does an incoming req see
system.mem_ctrls1.wrQLenPdf::47                     0                       # What write queue length does an incoming req see
system.mem_ctrls1.wrQLenPdf::48                     0                       # What write queue length does an incoming req see
system.mem_ctrls1.wrQLenPdf::49                     0                       # What write queue length does an incoming req see
system.mem_ctrls1.wrQLenPdf::50                     0                       # What write queue length does an incoming req see
system.mem_ctrls1.wrQLenPdf::51                     0                       # What write queue length does an incoming req see
system.mem_ctrls1.wrQLenPdf::52                     0                       # What write queue length does an incoming req see
system.mem_ctrls1.wrQLenPdf::53                     0                       # What write queue length does an incoming req see
system.mem_ctrls1.wrQLenPdf::54                     0                       # What write queue length does an incoming req see
system.mem_ctrls1.wrQLenPdf::55                     0                       # What write queue length does an incoming req see
system.mem_ctrls1.wrQLenPdf::56                     0                       # What write queue length does an incoming req see
system.mem_ctrls1.wrQLenPdf::57                     0                       # What write queue length does an incoming req see
system.mem_ctrls1.wrQLenPdf::58                     0                       # What write queue length does an incoming req see
system.mem_ctrls1.wrQLenPdf::59                     0                       # What write queue length does an incoming req see
system.mem_ctrls1.wrQLenPdf::60                     0                       # What write queue length does an incoming req see
system.mem_ctrls1.wrQLenPdf::61                     0                       # What write queue length does an incoming req see
system.mem_ctrls1.wrQLenPdf::62                     0                       # What write queue length does an incoming req see
system.mem_ctrls1.wrQLenPdf::63                     0                       # What write queue length does an incoming req see
system.mem_ctrls1.bytesPerActivate::samples        24805                       # Bytes accessed per row activation
system.mem_ctrls1.bytesPerActivate::mean   123.954364                       # Bytes accessed per row activation
system.mem_ctrls1.bytesPerActivate::gmean    87.964392                       # Bytes accessed per row activation
system.mem_ctrls1.bytesPerActivate::stdev   173.111126                       # Bytes accessed per row activation
system.mem_ctrls1.bytesPerActivate::0-127        17971     72.45%     72.45% # Bytes accessed per row activation
system.mem_ctrls1.bytesPerActivate::128-255         4812     19.40%     91.85% # Bytes accessed per row activation
system.mem_ctrls1.bytesPerActivate::256-383          197      0.79%     92.64% # Bytes accessed per row activation
system.mem_ctrls1.bytesPerActivate::384-511          411      1.66%     94.30% # Bytes accessed per row activation
system.mem_ctrls1.bytesPerActivate::512-639          568      2.29%     96.59% # Bytes accessed per row activation
system.mem_ctrls1.bytesPerActivate::640-767          243      0.98%     97.57% # Bytes accessed per row activation
system.mem_ctrls1.bytesPerActivate::768-895           42      0.17%     97.74% # Bytes accessed per row activation
system.mem_ctrls1.bytesPerActivate::896-1023           25      0.10%     97.84% # Bytes accessed per row activation
system.mem_ctrls1.bytesPerActivate::1024-1151          536      2.16%    100.00% # Bytes accessed per row activation
system.mem_ctrls1.bytesPerActivate::total        24805                       # Bytes accessed per row activation
system.mem_ctrls1.totQLat                  1390596682                       # Total ticks spent queuing
system.mem_ctrls1.totMemAccLat             2291384182                       # Total ticks spent from burst creation until serviced by the DRAM
system.mem_ctrls1.totBusLat                 240210000                       # Total ticks spent in databus transfers
system.mem_ctrls1.avgQLat                    28945.44                       # Average queueing delay per DRAM burst
system.mem_ctrls1.avgBusLat                   5000.00                       # Average bus latency per DRAM burst
system.mem_ctrls1.avgMemAccLat               47695.44                       # Average memory access latency per DRAM burst
system.mem_ctrls1.avgRdBW                      115.54                       # Average DRAM read bandwidth in MiByte/s
system.mem_ctrls1.avgWrBW                        0.00                       # Average achieved write bandwidth in MiByte/s
system.mem_ctrls1.avgRdBWSys                   115.54                       # Average system read bandwidth in MiByte/s
system.mem_ctrls1.avgWrBWSys                     0.00                       # Average system write bandwidth in MiByte/s
system.mem_ctrls1.peakBW                     12800.00                       # Theoretical peak bandwidth in MiByte/s
system.mem_ctrls1.busUtil                        0.90                       # Data bus utilization in percentage
system.mem_ctrls1.busUtilRead                    0.90                       # Data bus utilization in percentage for reads
system.mem_ctrls1.busUtilWrite                   0.00                       # Data bus utilization in percentage for writes
system.mem_ctrls1.avgRdQLen                      1.18                       # Average read queue length when enqueuing
system.mem_ctrls1.avgWrQLen                      0.00                       # Average write queue length when enqueuing
system.mem_ctrls1.readRowHits                   23237                       # Number of row buffer hits during reads
system.mem_ctrls1.writeRowHits                      0                       # Number of row buffer hits during writes
system.mem_ctrls1.readRowHitRate                48.37                       # Row buffer hit rate for reads
system.mem_ctrls1.writeRowHitRate                 nan                       # Row buffer hit rate for writes
system.mem_ctrls1.avgGap                    322548.42                       # Average gap between requests
system.mem_ctrls1.pageHitRate                   48.37                       # Row buffer hit rate, read and write combined
system.mem_ctrls1_0.actEnergy                94512180                       # Energy for activate commands per rank (pJ)
system.mem_ctrls1_0.preEnergy                50234415                       # Energy for precharge commands per rank (pJ)
system.mem_ctrls1_0.readEnergy              180477780                       # Energy for read commands per rank (pJ)
system.mem_ctrls1_0.writeEnergy                     0                       # Energy for write commands per rank (pJ)
system.mem_ctrls1_0.refreshEnergy        317154240.000000                       # Energy for refresh commands per rank (pJ)
system.mem_ctrls1_0.actBackEnergy           427199040                       # Energy for active background per rank (pJ)
system.mem_ctrls1_0.preBackEnergy            19059840                       # Energy for precharge background per rank (pJ)
system.mem_ctrls1_0.actPowerDownEnergy     1298323200                       # Energy for active power-down per rank (pJ)
system.mem_ctrls1_0.prePowerDownEnergy       48497760                       # Energy for precharge power-down per rank (pJ)
system.mem_ctrls1_0.selfRefreshEnergy      5440757220                       # Energy for self refresh per rank (pJ)
system.mem_ctrls1_0.totalEnergy            7876215675                       # Total energy per rank (pJ)
system.mem_ctrls1_0.averagePower           295.971656                       # Core power per rank (mW)
system.mem_ctrls1_0.totalIdleTime         14523095189                       # Total Idle time Per DRAM Rank
system.mem_ctrls1_0.memoryStateTime::IDLE      4777965                       # Time in different power states
system.mem_ctrls1_0.memoryStateTime::REF    134214000                       # Time in different power states
system.mem_ctrls1_0.memoryStateTime::SREF  22651415311                       # Time in different power states
system.mem_ctrls1_0.memoryStateTime::PRE_PDN    126299158                       # Time in different power states
system.mem_ctrls1_0.memoryStateTime::ACT    847346311                       # Time in different power states
system.mem_ctrls1_0.memoryStateTime::ACT_PDN   2847331566                       # Time in different power states
system.mem_ctrls1_1.actEnergy                82595520                       # Energy for activate commands per rank (pJ)
system.mem_ctrls1_1.preEnergy                43900560                       # Energy for precharge commands per rank (pJ)
system.mem_ctrls1_1.readEnergy              162542100                       # Energy for read commands per rank (pJ)
system.mem_ctrls1_1.writeEnergy                     0                       # Energy for write commands per rank (pJ)
system.mem_ctrls1_1.refreshEnergy        286422240.000000                       # Energy for refresh commands per rank (pJ)
system.mem_ctrls1_1.actBackEnergy           387332100                       # Energy for active background per rank (pJ)
system.mem_ctrls1_1.preBackEnergy            15805440                       # Energy for precharge background per rank (pJ)
system.mem_ctrls1_1.actPowerDownEnergy     1142723460                       # Energy for active power-down per rank (pJ)
system.mem_ctrls1_1.prePowerDownEnergy       58426560                       # Energy for precharge power-down per rank (pJ)
system.mem_ctrls1_1.selfRefreshEnergy      5541148845                       # Energy for self refresh per rank (pJ)
system.mem_ctrls1_1.totalEnergy            7720991595                       # Total energy per rank (pJ)
system.mem_ctrls1_1.averagePower           290.138660                       # Core power per rank (mW)
system.mem_ctrls1_1.totalIdleTime         14612063922                       # Total Idle time Per DRAM Rank
system.mem_ctrls1_1.memoryStateTime::IDLE      5352789                       # Time in different power states
system.mem_ctrls1_1.memoryStateTime::REF    121232000                       # Time in different power states
system.mem_ctrls1_1.memoryStateTime::SREF  23062478561                       # Time in different power states
system.mem_ctrls1_1.memoryStateTime::PRE_PDN    152152610                       # Time in different power states
system.mem_ctrls1_1.memoryStateTime::ACT    764071675                       # Time in different power states
system.mem_ctrls1_1.memoryStateTime::ACT_PDN   2506096676                       # Time in different power states
system.pwrStateResidencyTicks::UNDEFINED  26611384311                       # Cumulative time (in ticks) in various power states
system.cpu0.branchPred.lookups                6681620                       # Number of BP lookups
system.cpu0.branchPred.condPredicted          6681620                       # Number of conditional branches predicted
system.cpu0.branchPred.condIncorrect             2694                       # Number of conditional branches incorrect
system.cpu0.branchPred.BTBLookups             6023675                       # Number of BTB lookups
system.cpu0.branchPred.BTBHits                      0                       # Number of BTB hits
system.cpu0.branchPred.BTBCorrect                   0                       # Number of correct BTB predictions (this stat may not work properly.
system.cpu0.branchPred.BTBHitPct             0.000000                       # BTB Hit Percentage
system.cpu0.branchPred.usedRAS                 609692                       # Number of times the RAS was used to get a target.
system.cpu0.branchPred.RASInCorrect               577                       # Number of incorrect RAS predictions.
system.cpu0.branchPred.indirectLookups        6023675                       # Number of indirect predictor lookups.
system.cpu0.branchPred.indirectHits           4360692                       # Number of indirect target hits.
system.cpu0.branchPred.indirectMisses         1662983                       # Number of indirect misses.
system.cpu0.branchPredindirectMispredicted         1799                       # Number of mispredicted indirect branches.
system.cpu_voltage_domain.voltage                   1                       # Voltage in Volts
system.cpu_clk_domain.clock                       333                       # Clock period in ticks
system.cpu0.dtb.walker.pwrStateResidencyTicks::UNDEFINED  26611384311                       # Cumulative time (in ticks) in various power states
system.cpu0.apic_clk_domain.clock                5328                       # Clock period in ticks
system.cpu0.interrupts.pwrStateResidencyTicks::UNDEFINED  26611384311                       # Cumulative time (in ticks) in various power states
system.cpu0.itb.walker.pwrStateResidencyTicks::UNDEFINED  26611384311                       # Cumulative time (in ticks) in various power states
system.cpu0.workload.num_syscalls                  16                       # Number of system calls
system.cpu0.pwrStateResidencyTicks::ON    26611384311                       # Cumulative time (in ticks) in various power states
system.cpu0.numCycles                        79914068                       # number of cpu cycles simulated
system.cpu0.numWorkItemsStarted                     0                       # number of work items this cpu started
system.cpu0.numWorkItemsCompleted                   0                       # number of work items this cpu completed
system.cpu0.fetch.icacheStallCycles          34084104                       # Number of cycles fetch is stalled on an Icache miss
system.cpu0.fetch.Insts                      99861344                       # Number of instructions fetch has processed
system.cpu0.fetch.Branches                    6681620                       # Number of branches that fetch encountered
system.cpu0.fetch.predictedBranches           4970384                       # Number of branches that fetch has predicted taken
system.cpu0.fetch.Cycles                     45657007                       # Number of cycles fetch has run and was not squashing or blocked
system.cpu0.fetch.SquashCycles                   7414                       # Number of cycles fetch has spent squashing
system.cpu0.fetch.MiscStallCycles                 186                       # Number of cycles fetch has spent waiting on interrupts, or bad addresses, or out of MSHRs
system.cpu0.fetch.PendingTrapStallCycles         1367                       # Number of stall cycles due to pending traps
system.cpu0.fetch.PendingQuiesceStallCycles            7                       # Number of stall cycles due to pending quiesce instructions
system.cpu0.fetch.CacheLines                 11342019                       # Number of cache lines fetched
system.cpu0.fetch.IcacheSquashes                 2091                       # Number of outstanding Icache misses that were squashed
system.cpu0.fetch.rateDist::samples          79746378                       # Number of instructions fetched each cycle (Total)
system.cpu0.fetch.rateDist::mean             1.851749                       # Number of instructions fetched each cycle (Total)
system.cpu0.fetch.rateDist::stdev            3.113923                       # Number of instructions fetched each cycle (Total)
system.cpu0.fetch.rateDist::underflows              0      0.00%      0.00% # Number of instructions fetched each cycle (Total)
system.cpu0.fetch.rateDist::0                55398094     69.47%     69.47% # Number of instructions fetched each cycle (Total)
system.cpu0.fetch.rateDist::1                 1680918      2.11%     71.58% # Number of instructions fetched each cycle (Total)
system.cpu0.fetch.rateDist::2                 1846916      2.32%     73.89% # Number of instructions fetched each cycle (Total)
system.cpu0.fetch.rateDist::3                 1974973      2.48%     76.37% # Number of instructions fetched each cycle (Total)
system.cpu0.fetch.rateDist::4                 1463257      1.83%     78.20% # Number of instructions fetched each cycle (Total)
system.cpu0.fetch.rateDist::5                 1581335      1.98%     80.19% # Number of instructions fetched each cycle (Total)
system.cpu0.fetch.rateDist::6                 1303659      1.63%     81.82% # Number of instructions fetched each cycle (Total)
system.cpu0.fetch.rateDist::7                 1188819      1.49%     83.31% # Number of instructions fetched each cycle (Total)
system.cpu0.fetch.rateDist::8                13308407     16.69%    100.00% # Number of instructions fetched each cycle (Total)
system.cpu0.fetch.rateDist::overflows               0      0.00%    100.00% # Number of instructions fetched each cycle (Total)
system.cpu0.fetch.rateDist::min_value               0                       # Number of instructions fetched each cycle (Total)
system.cpu0.fetch.rateDist::max_value               8                       # Number of instructions fetched each cycle (Total)
system.cpu0.fetch.rateDist::total            79746378                       # Number of instructions fetched each cycle (Total)
system.cpu0.fetch.branchRate                 0.083610                       # Number of branch fetches per cycle
system.cpu0.fetch.rate                       1.249609                       # Number of inst fetches per cycle
system.cpu0.decode.IdleCycles                24570231                       # Number of cycles decode is idle
system.cpu0.decode.BlockedCycles             32620945                       # Number of cycles decode is blocked
system.cpu0.decode.RunCycles                 18993684                       # Number of cycles decode is running
system.cpu0.decode.UnblockCycles              3557811                       # Number of cycles decode is unblocking
system.cpu0.decode.SquashCycles                  3707                       # Number of cycles decode is squashing
system.cpu0.decode.DecodedInsts             147655215                       # Number of instructions handled by decode
system.cpu0.rename.SquashCycles                  3707                       # Number of cycles rename is squashing
system.cpu0.rename.IdleCycles                26674346                       # Number of cycles rename is idle
system.cpu0.rename.BlockCycles                7216474                       # Number of cycles rename is blocking
system.cpu0.rename.serializeStallCycles           970                       # count of cycles rename stalled for serializing inst
system.cpu0.rename.RunCycles                 20283770                       # Number of cycles rename is running
system.cpu0.rename.UnblockCycles             25567111                       # Number of cycles rename is unblocking
system.cpu0.rename.RenamedInsts             147645704                       # Number of instructions processed by rename
system.cpu0.rename.ROBFullEvents                   80                       # Number of times rename has blocked due to ROB full
system.cpu0.rename.IQFullEvents               5327572                       # Number of times rename has blocked due to IQ full
system.cpu0.rename.LQFullEvents              17979934                       # Number of times rename has blocked due to LQ full
system.cpu0.rename.SQFullEvents                981069                       # Number of times rename has blocked due to SQ full
system.cpu0.rename.RenamedOperands          163336356                       # Number of destination operands rename has renamed
system.cpu0.rename.RenameLookups            347801617                       # Number of register rename lookups that rename has made
system.cpu0.rename.int_rename_lookups       163503974                       # Number of integer rename lookups
system.cpu0.rename.fp_rename_lookups        104258005                       # Number of floating rename lookups
system.cpu0.rename.CommittedMaps            163241925                       # Number of HB maps that are committed
system.cpu0.rename.UndoneMaps                   94357                       # Number of HB maps that are undone due to squashing
system.cpu0.rename.serializingInsts                20                       # count of serializing insts renamed
system.cpu0.rename.tempSerializingInsts            18                       # count of temporary serializing insts renamed
system.cpu0.rename.skidInsts                 26691387                       # count of insts added to the skid buffer
system.cpu0.memDep0.insertedLoads            29011052                       # Number of loads inserted to the mem dependence unit.
system.cpu0.memDep0.insertedStores            8015288                       # Number of stores inserted to the mem dependence unit.
system.cpu0.memDep0.conflictingLoads          6812242                       # Number of conflicting loads.
system.cpu0.memDep0.conflictingStores         1562387                       # Number of conflicting stores.
system.cpu0.iq.iqInstsAdded                 147629571                       # Number of instructions added to the IQ (excludes non-spec)
system.cpu0.iq.iqNonSpecInstsAdded                472                       # Number of non-speculative instructions added to the IQ
system.cpu0.iq.iqInstsIssued                148991224                       # Number of instructions issued
system.cpu0.iq.iqSquashedInstsIssued              123                       # Number of squashed instructions issued
system.cpu0.iq.iqSquashedInstsExamined          73077                       # Number of squashed instructions iterated over during squash; mainly for profiling
system.cpu0.iq.iqSquashedOperandsExamined        83314                       # Number of squashed operands that are examined and possibly removed from graph
system.cpu0.iq.iqSquashedNonSpecRemoved           420                       # Number of squashed non-spec instructions that were removed
system.cpu0.iq.issued_per_cycle::samples     79746378                       # Number of insts issued each cycle
system.cpu0.iq.issued_per_cycle::mean        1.868313                       # Number of insts issued each cycle
system.cpu0.iq.issued_per_cycle::stdev       1.855671                       # Number of insts issued each cycle
system.cpu0.iq.issued_per_cycle::underflows            0      0.00%      0.00% # Number of insts issued each cycle
system.cpu0.iq.issued_per_cycle::0           24618051     30.87%     30.87% # Number of insts issued each cycle
system.cpu0.iq.issued_per_cycle::1           15394042     19.30%     50.17% # Number of insts issued each cycle
[...]
system.l3.demand_mshr_miss_latency::cpu2.data   2053956584                       # number of demand (read+write) MSHR miss cycles
system.l3.demand_mshr_miss_latency::cpu3.inst     93546589                       # number of demand (read+write) MSHR miss cycles
system.l3.demand_mshr_miss_latency::cpu3.data   2147120589                       # number of demand (read+write) MSHR miss cycles
system.l3.demand_mshr_miss_latency::total   8773891256                       # number of demand (read+write) MSHR miss cycles
system.l3.overall_mshr_miss_latency::cpu0.inst     91426386                       # number of overall MSHR miss cycles
system.l3.overall_mshr_miss_latency::cpu0.data   2184201853                       # number of overall MSHR miss cycles
system.l3.overall_mshr_miss_latency::cpu1.inst     96150964                       # number of overall MSHR miss cycles
system.l3.overall_mshr_miss_latency::cpu1.data   2014669111                       # number of overall MSHR miss cycles
system.l3.overall_mshr_miss_latency::cpu2.inst     92819180                       # number of overall MSHR miss cycles
system.l3.overall_mshr_miss_latency::cpu2.data   2053956584                       # number of overall MSHR miss cycles
system.l3.overall_mshr_miss_latency::cpu3.inst     93546589                       # number of overall MSHR miss cycles
system.l3.overall_mshr_miss_latency::cpu3.data   2147120589                       # number of overall MSHR miss cycles
system.l3.overall_mshr_miss_latency::total   8773891256                       # number of overall MSHR miss cycles
system.l3.ReadExReq_mshr_miss_rate::cpu0.data     0.999780                       # mshr miss rate for ReadExReq accesses
system.l3.ReadExReq_mshr_miss_rate::cpu1.data     0.999780                       # mshr miss rate for ReadExReq accesses
system.l3.ReadExReq_mshr_miss_rate::cpu2.data     0.999780                       # mshr miss rate for ReadExReq accesses
system.l3.ReadExReq_mshr_miss_rate::cpu3.data     0.999868                       # mshr miss rate for ReadExReq accesses
system.l3.ReadExReq_mshr_miss_rate::total     0.999802                       # mshr miss rate for ReadExReq accesses
system.l3.ReadSharedReq_mshr_miss_rate::cpu0.inst     0.995357                       # mshr miss rate for ReadSharedReq accesses
system.l3.ReadSharedReq_mshr_miss_rate::cpu0.data     0.000736                       # mshr miss rate for ReadSharedReq accesses
system.l3.ReadSharedReq_mshr_miss_rate::cpu1.inst     0.995353                       # mshr miss rate for ReadSharedReq accesses
system.l3.ReadSharedReq_mshr_miss_rate::cpu1.data     0.000750                       # mshr miss rate for ReadSharedReq accesses
system.l3.ReadSharedReq_mshr_miss_rate::cpu2.inst     0.995353                       # mshr miss rate for ReadSharedReq accesses
system.l3.ReadSharedReq_mshr_miss_rate::cpu2.data     0.000732                       # mshr miss rate for ReadSharedReq accesses
system.l3.ReadSharedReq_mshr_miss_rate::cpu3.inst     0.995362                       # mshr miss rate for ReadSharedReq accesses
system.l3.ReadSharedReq_mshr_miss_rate::cpu3.data     0.000724                       # mshr miss rate for ReadSharedReq accesses
system.l3.ReadSharedReq_mshr_miss_rate::total     0.004843                       # mshr miss rate for ReadSharedReq accesses
system.l3.demand_mshr_miss_rate::cpu0.inst     0.995357                       # mshr miss rate for demand accesses
system.l3.demand_mshr_miss_rate::cpu0.data     0.081377                       # mshr miss rate for demand accesses
system.l3.demand_mshr_miss_rate::cpu1.inst     0.995353                       # mshr miss rate for demand accesses
system.l3.demand_mshr_miss_rate::cpu1.data     0.081239                       # mshr miss rate for demand accesses
system.l3.demand_mshr_miss_rate::cpu2.inst     0.995353                       # mshr miss rate for demand accesses
system.l3.demand_mshr_miss_rate::cpu2.data     0.081319                       # mshr miss rate for demand accesses
system.l3.demand_mshr_miss_rate::cpu3.inst     0.995362                       # mshr miss rate for demand accesses
system.l3.demand_mshr_miss_rate::cpu3.data     0.081299                       # mshr miss rate for demand accesses
system.l3.demand_mshr_miss_rate::total       0.084780                       # mshr miss rate for demand accesses
system.l3.overall_mshr_miss_rate::cpu0.inst     0.995357                       # mshr miss rate for overall accesses
system.l3.overall_mshr_miss_rate::cpu0.data     0.081377                       # mshr miss rate for overall accesses
system.l3.overall_mshr_miss_rate::cpu1.inst     0.995353                       # mshr miss rate for overall accesses
system.l3.overall_mshr_miss_rate::cpu1.data     0.081239                       # mshr miss rate for overall accesses
system.l3.overall_mshr_miss_rate::cpu2.inst     0.995353                       # mshr miss rate for overall accesses
system.l3.overall_mshr_miss_rate::cpu2.data     0.081319                       # mshr miss rate for overall accesses
system.l3.overall_mshr_miss_rate::cpu3.inst     0.995362                       # mshr miss rate for overall accesses
system.l3.overall_mshr_miss_rate::cpu3.data     0.081299                       # mshr miss rate for overall accesses
system.l3.overall_mshr_miss_rate::total      0.084780                       # mshr miss rate for overall accesses
system.l3.ReadExReq_avg_mshr_miss_latency::cpu0.data 95043.884990                       # average ReadExReq mshr miss latency
system.l3.ReadExReq_avg_mshr_miss_latency::cpu1.data 87610.978480                       # average ReadExReq mshr miss latency
system.l3.ReadExReq_avg_mshr_miss_latency::cpu2.data 89354.635330                       # average ReadExReq mshr miss latency
system.l3.ReadExReq_avg_mshr_miss_latency::cpu3.data 93395.204602                       # average ReadExReq mshr miss latency
system.l3.ReadExReq_avg_mshr_miss_latency::total 91351.232758                       # average ReadExReq mshr miss latency
system.l3.ReadSharedReq_avg_mshr_miss_latency::cpu0.inst 85285.807836                       # average ReadSharedReq mshr miss latency
system.l3.ReadSharedReq_avg_mshr_miss_latency::cpu0.data 103992.167539                       # average ReadSharedReq mshr miss latency
system.l3.ReadSharedReq_avg_mshr_miss_latency::cpu1.inst 89776.810458                       # average ReadSharedReq mshr miss latency
system.l3.ReadSharedReq_avg_mshr_miss_latency::cpu1.data 101819.189744                       # average ReadSharedReq mshr miss latency
system.l3.ReadSharedReq_avg_mshr_miss_latency::cpu2.inst 86665.901027                       # average ReadSharedReq mshr miss latency
system.l3.ReadSharedReq_avg_mshr_miss_latency::cpu2.data 99969.047368                       # average ReadSharedReq mshr miss latency
system.l3.ReadSharedReq_avg_mshr_miss_latency::cpu3.inst 87182.282386                       # average ReadSharedReq mshr miss latency
system.l3.ReadSharedReq_avg_mshr_miss_latency::cpu3.data 108608.430851                       # average ReadSharedReq mshr miss latency
system.l3.ReadSharedReq_avg_mshr_miss_latency::total 89699.637498                       # average ReadSharedReq mshr miss latency
system.l3.demand_avg_mshr_miss_latency::cpu0.inst 85285.807836                       # average overall mshr miss latency
system.l3.demand_avg_mshr_miss_latency::cpu0.data 95118.314375                       # average overall mshr miss latency
system.l3.demand_avg_mshr_miss_latency::cpu1.inst 89776.810458                       # average overall mshr miss latency
system.l3.demand_avg_mshr_miss_latency::cpu1.data 87731.628244                       # average overall mshr miss latency
system.l3.demand_avg_mshr_miss_latency::cpu2.inst 86665.901027                       # average overall mshr miss latency
system.l3.demand_avg_mshr_miss_latency::cpu2.data 89442.457063                       # average overall mshr miss latency
system.l3.demand_avg_mshr_miss_latency::cpu3.inst 87182.282386                       # average overall mshr miss latency
system.l3.demand_avg_mshr_miss_latency::cpu3.data 93519.778257                       # average overall mshr miss latency
system.l3.demand_avg_mshr_miss_latency::total 91264.458596                       # average overall mshr miss latency
system.l3.overall_avg_mshr_miss_latency::cpu0.inst 85285.807836                       # average overall mshr miss latency
system.l3.overall_avg_mshr_miss_latency::cpu0.data 95118.314375                       # average overall mshr miss latency
system.l3.overall_avg_mshr_miss_latency::cpu1.inst 89776.810458                       # average overall mshr miss latency
system.l3.overall_avg_mshr_miss_latency::cpu1.data 87731.628244                       # average overall mshr miss latency
system.l3.overall_avg_mshr_miss_latency::cpu2.inst 86665.901027                       # average overall mshr miss latency
system.l3.overall_avg_mshr_miss_latency::cpu2.data 89442.457063                       # average overall mshr miss latency
system.l3.overall_avg_mshr_miss_latency::cpu3.inst 87182.282386                       # average overall mshr miss latency
system.l3.overall_avg_mshr_miss_latency::cpu3.data 93519.778257                       # average overall mshr miss latency
system.l3.overall_avg_mshr_miss_latency::total 91264.458596                       # average overall mshr miss latency
system.membus.snoop_filter.tot_requests         96137                       # Total number of requests made to the snoop filter.
system.membus.snoop_filter.hit_single_requests            0                       # Number of requests hitting in the snoop filter with a single holder of the requested data.
system.membus.snoop_filter.hit_multi_requests            0                       # Number of requests hitting in the snoop filter with multiple (>1) holders of the requested data.
system.membus.snoop_filter.tot_snoops               0                       # Total number of snoops made to the snoop filter.
system.membus.snoop_filter.hit_single_snoops            0                       # Number of snoops hitting in the snoop filter with a single holder of the requested data.
system.membus.snoop_filter.hit_multi_snoops            0                       # Number of snoops hitting in the snoop filter with multiple (>1) holders of the requested data.
system.membus.pwrStateResidencyTicks::UNDEFINED  26611384311                       # Cumulative time (in ticks) in various power states
system.membus.trans_dist::ReadResp               5051                       # Transaction distribution
system.membus.trans_dist::ReadExReq             91086                       # Transaction distribution
system.membus.trans_dist::ReadExResp            91086                       # Transaction distribution
system.membus.trans_dist::ReadSharedReq          5051                       # Transaction distribution
system.membus.pkt_count_system.l3.mem_side::system.mem_ctrls0.port        96190                       # Packet count per connected master and slave (bytes)
system.membus.pkt_count_system.l3.mem_side::system.mem_ctrls1.port        96084                       # Packet count per connected master and slave (bytes)
system.membus.pkt_count_system.l3.mem_side::total       192274                       # Packet count per connected master and slave (bytes)
system.membus.pkt_count::total                 192274                       # Packet count per connected master and slave (bytes)
system.membus.pkt_size_system.l3.mem_side::system.mem_ctrls0.port      3078080                       # Cumulative packet size per connected master and slave (bytes)
system.membus.pkt_size_system.l3.mem_side::system.mem_ctrls1.port      3074688                       # Cumulative packet size per connected master and slave (bytes)
system.membus.pkt_size_system.l3.mem_side::total      6152768                       # Cumulative packet size per connected master and slave (bytes)
system.membus.pkt_size::total                 6152768                       # Cumulative packet size per connected master and slave (bytes)
system.membus.snoops                                0                       # Total snoops (count)
system.membus.snoopTraffic                          0                       # Total snoop traffic (bytes)
system.membus.snoop_fanout::samples             96137                       # Request fanout histogram
system.membus.snoop_fanout::mean                    0                       # Request fanout histogram
system.membus.snoop_fanout::stdev                   0                       # Request fanout histogram
system.membus.snoop_fanout::underflows              0      0.00%      0.00% # Request fanout histogram
system.membus.snoop_fanout::0                   96137    100.00%    100.00% # Request fanout histogram
system.membus.snoop_fanout::1                       0      0.00%    100.00% # Request fanout histogram
system.membus.snoop_fanout::overflows               0      0.00%    100.00% # Request fanout histogram
system.membus.snoop_fanout::min_value               0                       # Request fanout histogram
system.membus.snoop_fanout::max_value               0                       # Request fanout histogram
system.membus.snoop_fanout::total               96137                       # Request fanout histogram
system.membus.reqLayer8.occupancy            72442675                       # Layer occupancy (ticks)
system.membus.reqLayer8.utilization               0.3                       # Layer utilization (%)
system.membus.reqLayer9.occupancy            72306142                       # Layer occupancy (ticks)
system.membus.reqLayer9.utilization               0.3                       # Layer utilization (%)
system.membus.respLayer1.occupancy          521798301                       # Layer occupancy (ticks)
system.membus.respLayer1.utilization              2.0                       # Layer utilization (%)
system.tol3bus.snoop_filter.tot_requests      2249514                       # Total number of requests made to the snoop filter.
system.tol3bus.snoop_filter.hit_single_requests      1115558                       # Number of requests hitting in the snoop filter with a single holder of the requested data.
system.tol3bus.snoop_filter.hit_multi_requests            0                       # Number of requests hitting in the snoop filter with multiple (>1) holders of the requested data.
system.tol3bus.snoop_filter.tot_snoops              1                       # Total number of snoops made to the snoop filter.
system.tol3bus.snoop_filter.hit_single_snoops            1                       # Number of snoops hitting in the snoop filter with a single holder of the requested data.
system.tol3bus.snoop_filter.hit_multi_snoops            0                       # Number of snoops hitting in the snoop filter with multiple (>1) holders of the requested data.
system.tol3bus.pwrStateResidencyTicks::UNDEFINED  26611384311                       # Cumulative time (in ticks) in various power states
system.tol3bus.trans_dist::ReadResp           1042850                       # Transaction distribution
system.tol3bus.trans_dist::WritebackDirty      1112713                       # Transaction distribution
system.tol3bus.trans_dist::CleanEvict            2846                       # Transaction distribution
system.tol3bus.trans_dist::ReadExReq            91104                       # Transaction distribution
system.tol3bus.trans_dist::ReadExResp           91104                       # Transaction distribution
system.tol3bus.trans_dist::ReadSharedReq      1042852                       # Transaction distribution
system.tol3bus.pkt_count_system.cpu0.l2.mem_side::system.l3.cpu_side       845179                       # Packet count per connected master and slave (bytes)
system.tol3bus.pkt_count_system.cpu1.l2.mem_side::system.l3.cpu_side       846641                       # Packet count per connected master and slave (bytes)
system.tol3bus.pkt_count_system.cpu2.l2.mem_side::system.l3.cpu_side       845806                       # Packet count per connected master and slave (bytes)
system.tol3bus.pkt_count_system.cpu3.l2.mem_side::system.l3.cpu_side       845842                       # Packet count per connected master and slave (bytes)
system.tol3bus.pkt_count::total               3383468                       # Packet count per connected master and slave (bytes)
system.tol3bus.pkt_size_system.cpu0.l2.mem_side::system.l3.cpu_side     35917376                       # Cumulative packet size per connected master and slave (bytes)
system.tol3bus.pkt_size_system.cpu1.l2.mem_side::system.l3.cpu_side     35979584                       # Cumulative packet size per connected master and slave (bytes)
system.tol3bus.pkt_size_system.cpu2.l2.mem_side::system.l3.cpu_side     35944064                       # Cumulative packet size per connected master and slave (bytes)
system.tol3bus.pkt_size_system.cpu3.l2.mem_side::system.l3.cpu_side     35945664                       # Cumulative packet size per connected master and slave (bytes)
system.tol3bus.pkt_size::total              143786688                       # Cumulative packet size per connected master and slave (bytes)
system.tol3bus.snoops                               1                       # Total snoops (count)
system.tol3bus.snoopTraffic                         0                       # Total snoop traffic (bytes)
system.tol3bus.snoop_fanout::samples          1133957                       # Request fanout histogram
system.tol3bus.snoop_fanout::mean            0.000001                       # Request fanout histogram
system.tol3bus.snoop_fanout::stdev           0.000939                       # Request fanout histogram
system.tol3bus.snoop_fanout::underflows             0      0.00%      0.00% # Request fanout histogram
system.tol3bus.snoop_fanout::0                1133956    100.00%    100.00% # Request fanout histogram
system.tol3bus.snoop_fanout::1                      1      0.00%    100.00% # Request fanout histogram
system.tol3bus.snoop_fanout::2                      0      0.00%    100.00% # Request fanout histogram
system.tol3bus.snoop_fanout::3                      0      0.00%    100.00% # Request fanout histogram
system.tol3bus.snoop_fanout::4                      0      0.00%    100.00% # Request fanout histogram
system.tol3bus.snoop_fanout::overflows              0      0.00%    100.00% # Request fanout histogram
system.tol3bus.snoop_fanout::min_value              0                       # Request fanout histogram
system.tol3bus.snoop_fanout::max_value              1                       # Request fanout histogram
system.tol3bus.snoop_fanout::total            1133957                       # Request fanout histogram
system.tol3bus.reqLayer0.occupancy         1119621591                       # Layer occupancy (ticks)
system.tol3bus.reqLayer0.utilization              4.2                       # Layer utilization (%)
system.tol3bus.respLayer0.occupancy         188698302                       # Layer occupancy (ticks)
system.tol3bus.respLayer0.utilization             0.7                       # Layer utilization (%)
system.tol3bus.respLayer1.occupancy         189006710                       # Layer occupancy (ticks)
system.tol3bus.respLayer1.utilization             0.7                       # Layer utilization (%)
system.tol3bus.respLayer2.occupancy         188822224                       # Layer occupancy (ticks)
system.tol3bus.respLayer2.utilization             0.7                       # Layer utilization (%)
system.tol3bus.respLayer3.occupancy         188849140                       # Layer occupancy (ticks)
system.tol3bus.respLayer3.utilization             0.7                       # Layer utilization (%)

---------- End Simulation Statistics   ----------
