
---------- Begin Simulation Statistics ----------
sim_seconds                                  0.033951                       # Number of seconds simulated
sim_ticks                                 33951124557                       # Number of ticks simulated
final_tick                                33951124557                       # Number of ticks from beginning of simulation (restored from checkpoints and never reset)
sim_freq                                 1000000000000                       # Frequency of simulated ticks
host_inst_rate                                 162746                       # Simulator instruction rate (inst/s)
host_op_rate                                   240633                       # Simulator op (including micro ops) rate (op/s)
host_tick_rate                               13823748                       # Simulator tick rate (ticks/s)
host_mem_usage                                8677176                       # Number of bytes of host memory used
host_seconds                                  2456.00                       # Real time elapsed on the host
sim_insts                                   399703927                       # Number of instructions simulated
sim_ops                                     590994158                       # Number of ops (including micro ops) simulated
system.voltage_domain.voltage                       1                       # Voltage in Volts
system.clk_domain.clock                          1000                       # Clock period in ticks
system.mem_ctrls0.pwrStateResidencyTicks::UNDEFINED  33951124557                       # Cumulative time (in ticks) in various power states
system.mem_ctrls0.bytes_read::cpu0.inst         33920                       # Number of bytes read from this memory
system.mem_ctrls0.bytes_read::cpu0.data        734528                       # Number of bytes read from this memory
system.mem_ctrls0.bytes_read::cpu1.inst         34816                       # Number of bytes read from this memory
system.mem_ctrls0.bytes_read::cpu1.data        735104                       # Number of bytes read from this memory
system.mem_ctrls0.bytes_read::cpu2.inst         34496                       # Number of bytes read from this memory
system.mem_ctrls0.bytes_read::cpu2.data        735360                       # Number of bytes read from this memory
system.mem_ctrls0.bytes_read::cpu3.inst         34624                       # Number of bytes read from this memory
system.mem_ctrls0.bytes_read::cpu3.data        735296                       # Number of bytes read from this memory
system.mem_ctrls0.bytes_read::total           3078144                       # Number of bytes read from this memory
system.mem_ctrls0.bytes_inst_read::cpu0.inst        33920                       # Number of instructions bytes read from this memory
system.mem_ctrls0.bytes_inst_read::cpu1.inst        34816                       # Number of instructions bytes read from this memory
system.mem_ctrls0.bytes_inst_read::cpu2.inst        34496                       # Number of instructions bytes read from this memory
system.mem_ctrls0.bytes_inst_read::cpu3.inst        34624                       # Number of instructions bytes read from this memory
system.mem_ctrls0.bytes_inst_read::total       137856                       # Number of instructions bytes read from this memory
system.mem_ctrls0.num_reads::cpu0.inst            530                       # Number of read requests responded to by this memory
system.mem_ctrls0.num_reads::cpu0.data          11477                       # Number of read requests responded to by this memory
system.mem_ctrls0.num_reads::cpu1.inst            544                       # Number of read requests responded to by this memory
system.mem_ctrls0.num_reads::cpu1.data          11486                       # Number of read requests responded to by this memory
system.mem_ctrls0.num_reads::cpu2.inst            539                       # Number of read requests responded to by this memory
system.mem_ctrls0.num_reads::cpu2.data          11490                       # Number of read requests responded to by this memory
system.mem_ctrls0.num_reads::cpu3.inst            541                       # Number of read requests responded to by this memory
system.mem_ctrls0.num_reads::cpu3.data          11489                       # Number of read requests responded to by this memory
system.mem_ctrls0.num_reads::total              48096                       # Number of read requests responded to by this memory
system.mem_ctrls0.bw_read::cpu0.inst           999083                       # Total read bandwidth from this memory (bytes/s)
system.mem_ctrls0.bw_read::cpu0.data         21634865                       # Total read bandwidth from this memory (bytes/s)
system.mem_ctrls0.bw_read::cpu1.inst          1025474                       # Total read bandwidth from this memory (bytes/s)
system.mem_ctrls0.bw_read::cpu1.data         21651831                       # Total read bandwidth from this memory (bytes/s)
system.mem_ctrls0.bw_read::cpu2.inst          1016049                       # Total read bandwidth from this memory (bytes/s)
system.mem_ctrls0.bw_read::cpu2.data         21659371                       # Total read bandwidth from this memory (bytes/s)
system.mem_ctrls0.bw_read::cpu3.inst          1019819                       # Total read bandwidth from this memory (bytes/s)
system.mem_ctrls0.bw_read::cpu3.data         21657486                       # Total read bandwidth from this memory (bytes/s)
system.mem_ctrls0.bw_read::total             90663978                       # Total read bandwidth from this memory (bytes/s)
system.mem_ctrls0.bw_inst_read::cpu0.inst       999083                       # Instruction read bandwidth from this memory (bytes/s)
system.mem_ctrls0.bw_inst_read::cpu1.inst      1025474                       # Instruction read bandwidth from this memory (bytes/s)
system.mem_ctrls0.bw_inst_read::cpu2.inst      1016049                       # Instruction read bandwidth from this memory (bytes/s)
system.mem_ctrls0.bw_inst_read::cpu3.inst      1019819                       # Instruction read bandwidth from this memory (bytes/s)
system.mem_ctrls0.bw_inst_read::total         4060425                       # Instruction read bandwidth from this memory (bytes/s)
system.mem_ctrls0.bw_total::cpu0.inst          999083                       # Total bandwidth to/from this memory (bytes/s)
system.mem_ctrls0.bw_total::cpu0.data        21634865                       # Total bandwidth to/from this memory (bytes/s)
system.mem_ctrls0.bw_total::cpu1.inst         1025474                       # Total bandwidth to/from this memory (bytes/s)
system.mem_ctrls0.bw_total::cpu1.data        21651831                       # Total bandwidth to/from this memory (bytes/s)
system.mem_ctrls0.bw_total::cpu2.inst         1016049                       # Total bandwidth to/from this memory (bytes/s)
system.mem_ctrls0.bw_total::cpu2.data        21659371                       # Total bandwidth to/from this memory (bytes/s)
system.mem_ctrls0.bw_total::cpu3.inst         1019819                       # Total bandwidth to/from this memory (bytes/s)
system.mem_ctrls0.bw_total::cpu3.data        21657486                       # Total bandwidth to/from this memory (bytes/s)
system.mem_ctrls0.bw_total::total            90663978                       # Total bandwidth to/from this memory (bytes/s)
system.mem_ctrls0.readReqs                      48096                       # Number of read requests accepted
system.mem_ctrls0.writeReqs                         0                       # Number of write requests accepted
system.mem_ctrls0.readBursts                    48096                       # Number of DRAM read bursts, including those serviced by the write queue
system.mem_ctrls0.writeBursts                       0                       # Number of DRAM write bursts, including those merged in the write queue
system.mem_ctrls0.bytesReadDRAM               3078144                       # Total number of bytes read from DRAM
system.mem_ctrls0.bytesReadWrQ                      0                       # Total number of bytes read from write queue
system.mem_ctrls0.bytesWritten                      0                       # Total number of bytes written to DRAM
system.mem_ctrls0.bytesReadSys                3078144                       # Total read bytes from the system interface side
system.mem_ctrls0.bytesWrittenSys                   0                       # Total written bytes from the system interface side
system.mem_ctrls0.servicedByWrQ                     0                       # Number of DRAM read bursts serviced by the write queue
system.mem_ctrls0.mergedWrBursts                    0                       # Number of DRAM write bursts merged with an existing one
system.mem_ctrls0.neitherReadNorWriteReqs            0                       # Number of requests that are neither read nor write
system.mem_ctrls0.perBankRdBursts::0             2804                       # Per bank write bursts
system.mem_ctrls0.perBankRdBursts::1             3068                       # Per bank write bursts
system.mem_ctrls0.perBankRdBursts::2             3125                       # Per bank write bursts
system.mem_ctrls0.perBankRdBursts::3             3210                       # Per bank write bursts
system.mem_ctrls0.perBankRdBursts::4             3222                       # Per bank write bursts
system.mem_ctrls0.perBankRdBursts::5             3284                       # Per bank write bursts
system.mem_ctrls0.perBankRdBursts::6             3342                       # Per bank write bursts
system.mem_ctrls0.perBankRdBursts::7             3262                       # Per bank write bursts
system.mem_ctrls0.perBankRdBursts::8             3276                       # Per bank write bursts
system.mem_ctrls0.perBankRdBursts::9             2951                       # Per bank write bursts
system.mem_ctrls0.perBankRdBursts::10            2820                       # Per bank write bursts
system.mem_ctrls0.perBankRdBursts::11            2818                       # Per bank write bursts
system.mem_ctrls0.perBankRdBursts::12            2794                       # Per bank write bursts
system.mem_ctrls0.perBankRdBursts::13            2742                       # Per bank write bursts
system.mem_ctrls0.perBankRdBursts::14            2676                       # Per bank write bursts
system.mem_ctrls0.perBankRdBursts::15            2702                       # Per bank write bursts
system.mem_ctrls0.perBankWrBursts::0                0                       # Per bank write bursts
system.mem_ctrls0.perBankWrBursts::1                0                       # Per bank write bursts
system.mem_ctrls0.perBankWrBursts::2                0                       # Per bank write bursts
system.mem_ctrls0.perBankWrBursts::3                0                       # Per bank write bursts
system.mem_ctrls0.perBankWrBursts::4                0                       # Per bank write bursts
system.mem_ctrls0.perBankWrBursts::5                0                       # Per bank write bursts
system.mem_ctrls0.perBankWrBursts::6                0                       # Per bank write bursts
system.mem_ctrls0.perBankWrBursts::7                0                       # Per bank write bursts
system.mem_ctrls0.perBankWrBursts::8                0                       # Per bank write bursts
system.mem_ctrls0.perBankWrBursts::9                0                       # Per bank write bursts
system.mem_ctrls0.perBankWrBursts::10               0                       # Per bank write bursts
system.mem_ctrls0.perBankWrBursts::11               0                       # Per bank write bursts
system.mem_ctrls0.perBankWrBursts::12               0                       # Per bank write bursts
system.mem_ctrls0.perBankWrBursts::13               0                       # Per bank write bursts
system.mem_ctrls0.perBankWrBursts::14               0                       # Per bank write bursts
system.mem_ctrls0.perBankWrBursts::15               0                       # Per bank write bursts
system.mem_ctrls0.numRdRetry                        0                       # Number of times read queue was full causing retry
system.mem_ctrls0.numWrRetry                        0                       # Number of times write queue was full causing retry
system.mem_ctrls0.totGap                  20866887225                       # Total gap between requests
system.mem_ctrls0.readPktSize::0                    0                       # Read request sizes (log2)
system.mem_ctrls0.readPktSize::1                    0                       # Read request sizes (log2)
system.mem_ctrls0.readPktSize::2                    0                       # Read request sizes (log2)
system.mem_ctrls0.readPktSize::3                    0                       # Read request sizes (log2)
system.mem_ctrls0.readPktSize::4                    0                       # Read request sizes (log2)
system.mem_ctrls0.readPktSize::5                    0                       # Read request sizes (log2)
system.mem_ctrls0.readPktSize::6                48096                       # Read request sizes (log2)
system.mem_ctrls0.writePktSize::0                   0                       # Write request sizes (log2)
system.mem_ctrls0.writePktSize::1                   0                       # Write request sizes (log2)
system.mem_ctrls0.writePktSize::2                   0                       # Write request sizes (log2)
system.mem_ctrls0.writePktSize::3                   0                       # Write request sizes (log2)
system.mem_ctrls0.writePktSize::4                   0                       # Write request sizes (log2)
system.mem_ctrls0.writePktSize::5                   0                       # Write request sizes (log2)
system.mem_ctrls0.writePktSize::6                   0                       # Write request sizes (log2)
system.mem_ctrls0.rdQLenPdf::0                  26774                       # What read queue length does an incoming req see
system.mem_ctrls0.rdQLenPdf::1                  13905                       # What read queue length does an incoming req see
system.mem_ctrls0.rdQLenPdf::2                   5966                       # What read queue length does an incoming req see
system.mem_ctrls0.rdQLenPdf::3                   1287                       # What read queue length does an incoming req see
system.mem_ctrls0.rdQLenPdf::4                    106                       # What read queue length does an incoming req see
system.mem_ctrls0.rdQLenPdf::5                     43                       # What read queue length does an incoming req see
system.mem_ctrls0.rdQLenPdf::6                     11                       # What read queue length does an incoming req see
system.mem_ctrls0.rdQLenPdf::7                      3                       # What read queue length does an incoming req see
system.mem_ctrls0.rdQLenPdf::8                      1                       # What read queue length does an incoming req see
system.mem_ctrls0.rdQLenPdf::9                      0                       # What read queue length does an incoming req see
system.mem_ctrls0.rdQLenPdf::10                     0                       # What read queue length does an incoming req see
system.mem_ctrls0.rdQLenPdf::11                     0                       # What read queue length does an incoming req see
system.mem_ctrls0.rdQLenPdf::12                     0                       # What read queue length does an incoming req see
system.mem_ctrls0.rdQLenPdf::13                     0                       # What read queue length does an incoming req see
system.mem_ctrls0.rdQLenPdf::14                     0                       # What read queue length does an incoming req see
system.mem_ctrls0.rdQLenPdf::15                     0                       # What read queue length does an incoming req see
system.mem_ctrls0.rdQLenPdf::16                     0                       # What read queue length does an incoming req see
system.mem_ctrls0.rdQLenPdf::17                     0                       # What read queue length does an incoming req see
system.mem_ctrls0.rdQLenPdf::18                     0                       # What read queue length does an incoming req see
system.mem_ctrls0.rdQLenPdf::19                     0                       # What read queue length does an incoming req see
system.mem_ctrls0.rdQLenPdf::20                     0                       # What read queue length does an incoming req see
system.mem_ctrls0.rdQLenPdf::21                     0                       # What read queue length does an incoming req see
system.mem_ctrls0.rdQLenPdf::22                     0                       # What read queue length does an incoming req see
system.mem_ctrls0.rdQLenPdf::23                     0                       # What read queue length does an incoming req see
system.mem_ctrls0.rdQLenPdf::24                     0                       # What read queue length does an incoming req see
system.mem_ctrls0.rdQLenPdf::25                     0                       # What read queue length does an incoming req see
system.mem_ctrls0.rdQLenPdf::26                     0                       # What read queue length does an incoming req see
system.mem_ctrls0.rdQLenPdf::27                     0                       # What read queue length does an incoming req see
system.mem_ctrls0.rdQLenPdf::28                     0                       # What read queue length does an incoming req see
system.mem_ctrls0.rdQLenPdf::29                     0                       # What read queue length does an incoming req see
system.mem_ctrls0.rdQLenPdf::30                     0                       # What read queue length does an incoming req see
system.mem_ctrls0.rdQLenPdf::31                     0                       # What read queue length does an incoming req see
system.mem_ctrls0.wrQLenPdf::0                      0                       # What write queue length does an incoming req see
system.mem_ctrls0.wrQLenPdf::1                      0                       # What write queue length does an incoming req see
system.mem_ctrls0.wrQLenPdf::2                      0                       # What write queue length does an incoming req see
system.mem_ctrls0.wrQLenPdf::3                      0                       # What write queue length does an incoming req see
system.mem_ctrls0.wrQLenPdf::4                      0                       # What write queue length does an incoming req see
system.mem_ctrls0.wrQLenPdf::5                      0                       # What write queue length does an incoming req see
system.mem_ctrls0.wrQLenPdf::6                      0                       # What write queue length does an incoming req see
system.mem_ctrls0.wrQLenPdf::7                      0                       # What write queue length does an incoming req see
system.mem_ctrls0.wrQLenPdf::8                      0                       # What write queue length does an incoming req see
system.mem_ctrls0.wrQLenPdf::9                      0                       # What write queue length does an incoming req see
system.mem_ctrls0.wrQLenPdf::10                     0                       # What write queue length does an incoming req see
system.mem_ctrls0.wrQLenPdf::11                     0                       # What write queue length does an incoming req see
system.mem_ctrls0.wrQLenPdf::12                     0                       # What write queue length does an incoming req see
system.mem_ctrls0.wrQLenPdf::13                     0                       # What write queue length does an incoming req see
system.mem_ctrls0.wrQLenPdf::14                     0                       # What write queue length does an incoming req see
system.mem_ctrls0.wrQLenPdf::15                     0                       # What write queue length does an incoming req see
system.mem_ctrls0.wrQLenPdf::16                     0                       # What write queue length does an incoming req see
system.mem_ctrls0.wrQLenPdf::17                     0                       # What write queue length does an incoming req see
system.mem_ctrls0.wrQLenPdf::18                     0                       # What write queue length does an incoming req see
system.mem_ctrls0.wrQLenPdf::19                     0                       # What write queue length does an incoming req see
system.mem_ctrls0.wrQLenPdf::20                     0                       # What write queue length does an incoming req see
system.mem_ctrls0.wrQLenPdf::21                     0                       # What write queue length does an incoming req see
system.mem_ctrls0.wrQLenPdf::22                     0                       # What write queue length does an incoming req see
system.mem_ctrls0.wrQLenPdf::23                     0                       # What write queue length does an incoming req see
system.mem_ctrls0.wrQLenPdf::24                     0                       # What write queue length does an incoming req see
system.mem_ctrls0.wrQLenPdf::25                     0                       # What write queue length does an incoming req see
system.mem_ctrls0.wrQLenPdf::26                     0                       # What write queue length does an incoming req see
system.mem_ctrls0.wrQLenPdf::27                     0                       # What write queue length does an incoming req see
system.mem_ctrls0.wrQLenPdf::28                     0                       # What write queue length does an incoming req see
system.mem_ctrls0.wrQLenPdf::29                     0                       # What write queue length does an incoming req see
system.mem_ctrls0.wrQLenPdf::30                     0                       # What write queue length does an incoming req see
system.mem_ctrls0.wrQLenPdf::31                     0                       # What write queue length does an incoming req see
system.mem_ctrls0.wrQLenPdf::32                     0                       # What write queue length does an incoming req see
system.mem_ctrls0.wrQLenPdf::33                     0                       # What write queue length does an incoming req see
system.mem_ctrls0.wrQLenPdf::34                     0                       # What write queue length does an incoming req see
system.mem_ctrls0.wrQLenPdf::35                     0                       # What write queue length does an incoming req see
system.mem_ctrls0.wrQLenPdf::36                     0                       # What write queue length does an incoming req see
system.mem_ctrls0.wrQLenPdf::37                     0                       # What write queue length does an incoming req see
system.mem_ctrls0.wrQLenPdf::38                     0                       # What write queue length does an incoming req see
system.mem_ctrls0.wrQLenPdf::39                     0                       # What write queue length does an incoming req see
system.mem_ctrls0.wrQLenPdf::40                     0                       # What write queue length does an incoming req see
system.mem_ctrls0.wrQLenPdf::41                     0                       # What write queue length does an incoming req see
system.mem_ctrls0.wrQLenPdf::42                     0                       # What write queue length does an incoming req see
system.mem_ctrls0.wrQLenPdf::43                     0                       # What write queue length does an incoming req see
system.mem_ctrls0.wrQLenPdf::44                     0                       # What write queue length does an incoming req see
system.mem_ctrls0.wrQLenPdf::45                     0                       # What write queue length does an incoming req see
system.mem_ctrls0.wrQLenPdf::46                     0                       # What write queue length does an incoming req see
system.mem_ctrls0.wrQLenPdf::47                     0                       # What write queue length does an incoming req see
system.mem_ctrls0.wrQLenPdf::48                     0                       # What write queue length does an incoming req see
system.mem_ctrls0.wrQLenPdf::49                     0                       # What write queue length does an incoming req see
system.mem_ctrls0.wrQLenPdf::50                     0                       # What write queue length does an incoming req see
system.mem_ctrls0.wrQLenPdf::51                     0                       # What write queue length does an incoming req see
system.mem_ctrls0.wrQLenPdf::52                     0                       # What write queue length does an incoming req see
system.mem_ctrls0.wrQLenPdf::53                     0                       # What write queue length does an incoming req see
system.mem_ctrls0.wrQLenPdf::54                     0                       # What write queue length does an incoming req see
system.mem_ctrls0.wrQLenPdf::55                     0                       # What write queue length does an incoming req see
system.mem_ctrls0.wrQLenPdf::56                     0                       # What write queue length does an incoming req see
system.mem_ctrls0.wrQLenPdf::57                     0                       # What write queue length does an incoming req see
system.mem_ctrls0.wrQLenPdf::58                     0                       # What write queue length does an incoming req see
system.mem_ctrls0.wrQLenPdf::59                     0                       # What write queue length does an incoming req see
system.mem_ctrls0.wrQLenPdf::60                     0                       # What write queue length does an incoming req see
system.mem_ctrls0.wrQLenPdf::61                     0                       # What write queue length does an incoming req see
system.mem_ctrls0.wrQLenPdf::62                     0                       # What write queue length does an incoming req see
system.mem_ctrls0.wrQLenPdf::63                     0                       # What write queue length does an incoming req see
system.mem_ctrls0.bytesPerActivate::samples        20336                       # Bytes accessed per row activation
system.mem_ctrls0.bytesPerActivate::mean   151.364280                       # Bytes accessed per row activation
system.mem_ctrls0.bytesPerActivate::gmean    97.859815                       # Bytes accessed per row activation
system.mem_ctrls0.bytesPerActivate::stdev   214.442370                       # Bytes accessed per row activation
system.mem_ctrls0.bytesPerActivate::0-127        13576     66.76%     66.76% # Bytes accessed per row activation
system.mem_ctrls0.bytesPerActivate::128-255         4260     20.95%     87.71% # Bytes accessed per row activation
system.mem_ctrls0.bytesPerActivate::256-383          235      1.16%     88.86% # Bytes accessed per row activation
system.mem_ctrls0.bytesPerActivate::384-511          514      2.53%     91.39% # Bytes accessed per row activation
system.mem_ctrls0.bytesPerActivate::512-639          592      2.91%     94.30% # Bytes accessed per row activation
system.mem_ctrls0.bytesPerActivate::640-767          299      1.47%     95.77% # Bytes accessed per row activation
system.mem_ctrls0.bytesPerActivate::768-895           59      0.29%     96.06% # Bytes accessed per row activation
system.mem_ctrls0.bytesPerActivate::896-1023           58      0.29%     96.35% # Bytes accessed per row activation
system.mem_ctrls0.bytesPerActivate::1024-1151          743      3.65%    100.00% # Bytes accessed per row activation
system.mem_ctrls0.bytesPerActivate::total        20336                       # Bytes accessed per row activation
system.mem_ctrls0.totQLat                  1222259091                       # Total ticks spent queuing
system.mem_ctrls0.totMemAccLat             2124059091                       # Total ticks spent from burst creation until serviced by the DRAM
system.mem_ctrls0.totBusLat                 240480000                       # Total ticks spent in databus transfers
system.mem_ctrls0.avgQLat                    25412.91                       # Average queueing delay per DRAM burst
system.mem_ctrls0.avgBusLat                   5000.00                       # Average bus latency per DRAM burst
system.mem_ctrls0.avgMemAccLat               44162.91                       # Average memory access latency per DRAM burst
system.mem_ctrls0.avgRdBW                       90.66                       # Average DRAM read bandwidth in MiByte/s
system.mem_ctrls0.avgWrBW                        0.00                       # Average achieved write bandwidth in MiByte/s
system.mem_ctrls0.avgRdBWSys                    90.66                       # Average system read bandwidth in MiByte/s
system.mem_ctrls0.avgWrBWSys                     0.00                       # Average system write bandwidth in MiByte/s
system.mem_ctrls0.peakBW                     12800.00                       # Theoretical peak bandwidth in MiByte/s
system.mem_ctrls0.busUtil                        0.71                       # Data bus utilization in percentage
system.mem_ctrls0.busUtilRead                    0.71                       # Data bus utilization in percentage for reads
system.mem_ctrls0.busUtilWrite                   0.00                       # Data bus utilization in percentage for writes
system.mem_ctrls0.avgRdQLen                      1.14                       # Average read queue length when enqueuing
system.mem_ctrls0.avgWrQLen                      0.00                       # Average write queue length when enqueuing
system.mem_ctrls0.readRowHits                   27760                       # Number of row buffer hits during reads
system.mem_ctrls0.writeRowHits                      0                       # Number of row buffer hits during writes
system.mem_ctrls0.readRowHitRate                57.72                       # Row buffer hit rate for reads
system.mem_ctrls0.writeRowHitRate                 nan                       # Row buffer hit rate for writes
system.mem_ctrls0.avgGap                    433859.10                       # Average gap between requests
system.mem_ctrls0.pageHitRate                   57.72                       # Row buffer hit rate, read and write combined
system.mem_ctrls0_0.actEnergy                78697080                       # Energy for activate commands per rank (pJ)
system.mem_ctrls0_0.preEnergy                41828490                       # Energy for precharge commands per rank (pJ)
system.mem_ctrls0_0.readEnergy              180763380                       # Energy for read commands per rank (pJ)
system.mem_ctrls0_0.writeEnergy                     0                       # Energy for write commands per rank (pJ)
system.mem_ctrls0_0.refreshEnergy        314695680.000000                       # Energy for refresh commands per rank (pJ)
system.mem_ctrls0_0.actBackEnergy           402221070                       # Energy for active background per rank (pJ)
system.mem_ctrls0_0.preBackEnergy            14397120                       # Energy for precharge background per rank (pJ)
system.mem_ctrls0_0.actPowerDownEnergy     1318669920                       # Energy for active power-down per rank (pJ)
system.mem_ctrls0_0.prePowerDownEnergy       45099840                       # Energy for precharge power-down per rank (pJ)
system.mem_ctrls0_0.selfRefreshEnergy      7209770220                       # Energy for self refresh per rank (pJ)
system.mem_ctrls0_0.totalEnergy            9606142800                       # Total energy per rank (pJ)
system.mem_ctrls0_0.averagePower           282.940339                       # Core power per rank (mW)
system.mem_ctrls0_0.totalIdleTime         19960575300                       # Total Idle time Per DRAM Rank
system.mem_ctrls0_0.memoryStateTime::IDLE      5049623                       # Time in different power states
system.mem_ctrls0_0.memoryStateTime::REF    133174000                       # Time in different power states
system.mem_ctrls0_0.memoryStateTime::SREF  30022300557                       # Time in different power states
system.mem_ctrls0_0.memoryStateTime::PRE_PDN    117405806                       # Time in different power states
system.mem_ctrls0_0.memoryStateTime::ACT    781482230                       # Time in different power states
system.mem_ctrls0_0.memoryStateTime::ACT_PDN   2891712341                       # Time in different power states
system.mem_ctrls0_1.actEnergy                66501960                       # Energy for activate commands per rank (pJ)
system.mem_ctrls0_1.preEnergy                35346630                       # Energy for precharge commands per rank (pJ)
system.mem_ctrls0_1.readEnergy              162642060                       # Energy for read commands per rank (pJ)
system.mem_ctrls0_1.writeEnergy                     0                       # Energy for write commands per rank (pJ)
system.mem_ctrls0_1.refreshEnergy        286422240.000000                       # Energy for refresh commands per rank (pJ)
system.mem_ctrls0_1.actBackEnergy           353744280                       # Energy for active background per rank (pJ)
system.mem_ctrls0_1.preBackEnergy            11873760                       # Energy for precharge background per rank (pJ)
system.mem_ctrls0_1.actPowerDownEnergy     1181229810                       # Energy for active power-down per rank (pJ)
system.mem_ctrls0_1.prePowerDownEnergy       63865440                       # Energy for precharge power-down per rank (pJ)
system.mem_ctrls0_1.selfRefreshEnergy      7298022060                       # Energy for self refresh per rank (pJ)
system.mem_ctrls0_1.totalEnergy            9459648240                       # Total energy per rank (pJ)
system.mem_ctrls0_1.averagePower           278.625472                       # Core power per rank (mW)
system.mem_ctrls0_1.totalIdleTime         20069833306                       # Total Idle time Per DRAM Rank
system.mem_ctrls0_1.memoryStateTime::IDLE      4946000                       # Time in different power states
system.mem_ctrls0_1.memoryStateTime::REF    121220000                       # Time in different power states
system.mem_ctrls0_1.memoryStateTime::SREF  30387718307                       # Time in different power states
system.mem_ctrls0_1.memoryStateTime::PRE_PDN    166346018                       # Time in different power states
system.mem_ctrls0_1.memoryStateTime::ACT    680433787                       # Time in different power states
system.mem_ctrls0_1.memoryStateTime::ACT_PDN   2590460445                       # Time in different power states
system.mem_ctrls1.pwrStateResidencyTicks::UNDEFINED  33951124557                       # Cumulative time (in ticks) in various power states
system.mem_ctrls1.bytes_read::cpu0.inst         34560                       # Number of bytes read from this memory
system.mem_ctrls1.bytes_read::cpu0.data        735296                       # Number of bytes read from this memory
system.mem_ctrls1.bytes_read::cpu1.inst         34048                       # Number of bytes read from this memory
system.mem_ctrls1.bytes_read::cpu1.data        734528                       # Number of bytes read from this memory
system.mem_ctrls1.bytes_read::cpu2.inst         33856                       # Number of bytes read from this memory
system.mem_ctrls1.bytes_read::cpu2.data        734272                       # Number of bytes read from this memory
system.mem_ctrls1.bytes_read::cpu3.inst         34048                       # Number of bytes read from this memory
system.mem_ctrls1.bytes_read::cpu3.data        734208                       # Number of bytes read from this memory
system.mem_ctrls1.bytes_read::total           3074816                       # Number of bytes read from this memory
system.mem_ctrls1.bytes_inst_read::cpu0.inst        34560                       # Number of instructions bytes read from this memory
system.mem_ctrls1.bytes_inst_read::cpu1.inst        34048                       # Number of instructions bytes read from this memory
system.mem_ctrls1.bytes_inst_read::cpu2.inst        33856                       # Number of instructions bytes read from this memory
system.mem_ctrls1.bytes_inst_read::cpu3.inst        34048                       # Number of instructions bytes read from this memory
system.mem_ctrls1.bytes_inst_read::total       136512                       # Number of instructions bytes read from this memory
system.mem_ctrls1.num_reads::cpu0.inst            540                       # Number of read requests responded to by this memory
system.mem_ctrls1.num_reads::cpu0.data          11489                       # Number of read requests responded to by this memory
system.mem_ctrls1.num_reads::cpu1.inst            532                       # Number of read requests responded to by this memory
system.mem_ctrls1.num_reads::cpu1.data          11477                       # Number of read requests responded to by this memory
system.mem_ctrls1.num_reads::cpu2.inst            529                       # Number of read requests responded to by this memory
system.mem_ctrls1.num_reads::cpu2.data          11473                       # Number of read requests responded to by this memory
system.mem_ctrls1.num_reads::cpu3.inst            532                       # Number of read requests responded to by this memory
system.mem_ctrls1.num_reads::cpu3.data          11472                       # Number of read requests responded to by this memory
system.mem_ctrls1.num_reads::total              48044                       # Number of read requests responded to by this memory
system.mem_ctrls1.bw_read::cpu0.inst          1017934                       # Total read bandwidth from this memory (bytes/s)
system.mem_ctrls1.bw_read::cpu0.data         21657486                       # Total read bandwidth from this memory (bytes/s)
system.mem_ctrls1.bw_read::cpu1.inst          1002853                       # Total read bandwidth from this memory (bytes/s)
system.mem_ctrls1.bw_read::cpu1.data         21634865                       # Total read bandwidth from this memory (bytes/s)
system.mem_ctrls1.bw_read::cpu2.inst           997198                       # Total read bandwidth from this memory (bytes/s)
system.mem_ctrls1.bw_read::cpu2.data         21627325                       # Total read bandwidth from this memory (bytes/s)
system.mem_ctrls1.bw_read::cpu3.inst          1002853                       # Total read bandwidth from this memory (bytes/s)
system.mem_ctrls1.bw_read::cpu3.data         21625440                       # Total read bandwidth from this memory (bytes/s)
system.mem_ctrls1.bw_read::total             90565954                       # Total read bandwidth from this memory (bytes/s)
system.mem_ctrls1.bw_inst_read::cpu0.inst      1017934                       # Instruction read bandwidth from this memory (bytes/s)
system.mem_ctrls1.bw_inst_read::cpu1.inst      1002853                       # Instruction read bandwidth from this memory (bytes/s)
system.mem_ctrls1.bw_inst_read::cpu2.inst       997198                       # Instruction read bandwidth from this memory (bytes/s)
system.mem_ctrls1.bw_inst_read::cpu3.inst      1002853                       # Instruction read bandwidth from this memory (bytes/s)
system.mem_ctrls1.bw_inst_read::total         4020839                       # Instruction read bandwidth from this memory (bytes/s)
system.mem_ctrls1.bw_total::cpu0.inst         1017934                       # Total bandwidth to/from this memory (bytes/s)
system.mem_ctrls1.bw_total::cpu0.data        21657486                       # Total bandwidth to/from this memory (bytes/s)
system.mem_ctrls1.bw_total::cpu1.inst         1002853                       # Total bandwidth to/from this memory (bytes/s)
system.mem_ctrls1.bw_total::cpu1.data        21634865                       # Total bandwidth to/from this memory (bytes/s)
system.mem_ctrls1.bw_total::cpu2.inst          997198                       # Total bandwidth to/from this memory (bytes/s)
system.mem_ctrls1.bw_total::cpu2.data        21627325                       # Total bandwidth to/from this memory (bytes/s)
system.mem_ctrls1.bw_total::cpu3.inst         1002853                       # Total bandwidth to/from this memory (bytes/s)
system.mem_ctrls1.bw_total::cpu3.data        21625440                       # Total bandwidth to/from this memory (bytes/s)
system.mem_ctrls1.bw_total::total            90565954                       # Total bandwidth to/from this memory (bytes/s)
system.mem_ctrls1.readReqs                      48044                       # Number of read requests accepted
system.mem_ctrls1.writeReqs                         0                       # Number of write requests accepted
system.mem_ctrls1.readBursts                    48044                       # Number of DRAM read bursts, including those serviced by the write queue
system.mem_ctrls1.writeBursts                       0                       # Number of DRAM write bursts, including those merged in the write queue
system.mem_ctrls1.bytesReadDRAM               3074816                       # Total number of bytes read from DRAM
system.mem_ctrls1.bytesReadWrQ                      0                       # Total number of bytes read from write queue
system.mem_ctrls1.bytesWritten                      0                       # Total number of bytes written to DRAM
system.mem_ctrls1.bytesReadSys                3074816                       # Total read bytes from the system interface side
system.mem_ctrls1.bytesWrittenSys                   0                       # Total written bytes from the system interface side
system.mem_ctrls1.servicedByWrQ                     0                       # Number of DRAM read bursts serviced by the write queue
system.mem_ctrls1.mergedWrBursts                    0                       # Number of DRAM write bursts merged with an existing one
system.mem_ctrls1.neitherReadNorWriteReqs            0                       # Number of requests that are neither read nor write
system.mem_ctrls1.perBankRdBursts::0             2794                       # Per bank write bursts
system.mem_ctrls1.perBankRdBursts::1             3072                       # Per bank write bursts
system.mem_ctrls1.perBankRdBursts::2             3121                       # Per bank write bursts
system.mem_ctrls1.perBankRdBursts::3             3203                       # Per bank write bursts
system.mem_ctrls1.perBankRdBursts::4             3223                       # Per bank write bursts
system.mem_ctrls1.perBankRdBursts::5             3264                       # Per bank write bursts
system.mem_ctrls1.perBankRdBursts::6             3346                       # Per bank write bursts
system.mem_ctrls1.perBankRdBursts::7             3256                       # Per bank write bursts
system.mem_ctrls1.perBankRdBursts::8             3283                       # Per bank write bursts
system.mem_ctrls1.perBankRdBursts::9             2941                       # Per bank write bursts
system.mem_ctrls1.perBankRdBursts::10            2817                       # Per bank write bursts
system.mem_ctrls1.perBankRdBursts::11            2832                       # Per bank write bursts
system.mem_ctrls1.perBankRdBursts::12            2794                       # Per bank write bursts
system.mem_ctrls1.perBankRdBursts::13            2731                       # Per bank write bursts
system.mem_ctrls1.perBankRdBursts::14            2682                       # Per bank write bursts
system.mem_ctrls1.perBankRdBursts::15            2685                       # Per bank write bursts
system.mem_ctrls1.perBankWrBursts::0                0                       # Per bank write bursts
system.mem_ctrls1.perBankWrBursts::1                0                       # Per bank write bursts
system.mem_ctrls1.perBankWrBursts::2                0                       # Per bank write bursts
system.mem_ctrls1.perBankWrBursts::3                0                       # Per bank write bursts
system.mem_ctrls1.perBankWrBursts::4                0                       # Per bank write bursts
system.mem_ctrls1.perBankWrBursts::5                0                       # Per bank write bursts
system.mem_ctrls1.perBankWrBursts::6                0                       # Per bank write bursts
system.mem_ctrls1.perBankWrBursts::7                0                       # Per bank write bursts
system.mem_ctrls1.perBankWrBursts::8                0                       # Per bank write bursts
system.mem_ctrls1.perBankWrBursts::9                0                       # Per bank write bursts
system.mem_ctrls1.perBankWrBursts::10               0                       # Per bank write bursts
system.mem_ctrls1.perBankWrBursts::11               0                       # Per bank write bursts
system.mem_ctrls1.perBankWrBursts::12               0                       # Per bank write bursts
system.mem_ctrls1.perBankWrBursts::13               0                       # Per bank write bursts
system.mem_ctrls1.perBankWrBursts::14               0                       # Per bank write bursts
system.mem_ctrls1.perBankWrBursts::15               0                       # Per bank write bursts
system.mem_ctrls1.numRdRetry                        0                       # Number of times read queue was full causing retry
system.mem_ctrls1.numWrRetry                        0                       # Number of times write queue was full causing retry
system.mem_ctrls1.totGap                  20867521902                       # Total gap between requests
system.mem_ctrls1.readPktSize::0                    0                       # Read request sizes (log2)
system.mem_ctrls1.readPktSize::1                    0                       # Read request sizes (log2)
system.mem_ctrls1.readPktSize::2                    0                       # Read request sizes (log2)
system.mem_ctrls1.readPktSize::3                    0                       # Read request sizes (log2)
system.mem_ctrls1.readPktSize::4                    0                       # Read request sizes (log2)
system.mem_ctrls1.readPktSize::5                    0                       # Read request sizes (log2)
system.mem_ctrls1.readPktSize::6                48044                       # Read request sizes (log2)
system.mem_ctrls1.writePktSize::0                   0                       # Write request sizes (log2)
system.mem_ctrls1.writePktSize::1                   0                       # Write request sizes (log2)
system.mem_ctrls1.writePktSize::2                   0                       # Write request sizes (log2)
system.mem_ctrls1.writePktSize::3                   0                       # Write request sizes (log2)
system.mem_ctrls1.writePktSize::4                   0                       # Write request sizes (log2)
system.mem_ctrls1.writePktSize::5                   0                       # Write request sizes (log2)
system.mem_ctrls1.writePktSize::6                   0                       # Write request sizes (log2)
system.mem_ctrls1.rdQLenPdf::0                  26822                       # What read queue length does an incoming req see
system.mem_ctrls1.rdQLenPdf::1                  13851                       # What read queue length does an incoming req see
system.mem_ctrls1.rdQLenPdf::2                   6001                       # What read queue length does an incoming req see
system.mem_ctrls1.rdQLenPdf::3                   1239                       # What read queue length does an incoming req see
system.mem_ctrls1.rdQLenPdf::4                     84                       # What read queue length does an incoming req see
system.mem_ctrls1.rdQLenPdf::5                     30                       # What read queue length does an incoming req see
system.mem_ctrls1.rdQLenPdf::6                      8                       # What read queue length does an incoming req see
system.mem_ctrls1.rdQLenPdf::7                      5                       # What read queue length does an incoming req see
system.mem_ctrls1.rdQLenPdf::8                      4                       # What read queue length does an incoming req see
system.mem_ctrls1.rdQLenPdf::9                      0                       # What read queue length does an incoming req see
system.mem_ctrls1.rdQLenPdf::10                     0                       # What read queue length does an incoming req see
system.mem_ctrls1.rdQLenPdf::11                     0                       # What read queue length does an incoming req see
system.mem_ctrls1.rdQLenPdf::12                     0                       # What read queue length does an incoming req see
system.mem_ctrls1.rdQLenPdf::13                     0                       # What read queue length does an incoming req see
system.mem_ctrls1.rdQLenPdf::14                     0                       # What read queue length does an incoming req see
system.mem_ctrls1.rdQLenPdf::15                     0                       # What read queue length does an incoming req see
system.mem_ctrls1.rdQLenPdf::16                     0                       # What read queue length does an incoming req see
system.mem_ctrls1.rdQLenPdf::17                     0                       # What read queue length does an incoming req see
system.mem_ctrls1.rdQLenPdf::18                     0                       # What read queue length does an incoming req see
system.mem_ctrls1.rdQLenPdf::19                     0                       # What read queue length does an incoming req see
system.mem_ctrls1.rdQLenPdf::20                     0                       # What read queue length does an incoming req see
system.mem_ctrls1.rdQLenPdf::21                     0                       # What read queue length does an incoming req see
system.mem_ctrls1.rdQLenPdf::22                     0                       # What read queue length does an incoming req see
system.mem_ctrls1.rdQLenPdf::23                     0                       # What read queue length does an incoming req see
system.mem_ctrls1.rdQLenPdf::24                     0                       # What read queue length does an incoming req see
system.mem_ctrls1.rdQLenPdf::25                     0                       # What read queue length does an incoming req see
system.mem_ctrls1.rdQLenPdf::26                     0                       # What read queue length does an incoming req see
system.mem_ctrls1.rdQLenPdf::27                     0                       # What read queue length does an incoming req see
system.mem_ctrls1.rdQLenPdf::28                     0                       # What read queue length does an incoming req see
system.mem_ctrls1.rdQLenPdf::29                     0                       # What read queue length does an incoming req see
system.mem_ctrls1.rdQLenPdf::30                     0                       # What read queue length does an incoming req see
system.mem_ctrls1.rdQLenPdf::31                     0                       # What read queue length does an incoming req see
system.mem_ctrls1.wrQLenPdf::0                      0                       # What write queue length does an incoming req see
system.mem_ctrls1.wrQLenPdf::1                      0                       # What write queue length does an incoming req see
system.mem_ctrls1.wrQLenPdf::2                      0                       # What write queue length does an incoming req see
system.mem_ctrls1.wrQLenPdf::3                      0                       # What write queue length does an incoming req see
system.mem_ctrls1.wrQLenPdf::4                      0                       # What write queue length does an incoming req see
system.mem_ctrls1.wrQLenPdf::5                      0                       # What write queue length does an incoming req see
system.mem_ctrls1.wrQLenPdf::6                      0                       # What write queue length does an incoming req see
system.mem_ctrls1.wrQLenPdf::7                      0                       # What write queue length does an incoming req see
system.mem_ctrls1.wrQLenPdf::8                      0                       # What write queue length does an incoming req see
system.mem_ctrls1.wrQLenPdf::9                      0                       # What write queue length does an incoming req see
system.mem_ctrls1.wrQLenPdf::10                     0                       # What write queue length does an incoming req see
system.mem_ctrls1.wrQLenPdf::11                     0                       # What write queue length does an incoming req see
system.mem_ctrls1.wrQLenPdf::12                     0                       # What write queue length does an incoming req see
system.mem_ctrls1.wrQLenPdf::13                     0                       # What write queue length does an incoming req see
system.mem_ctrls1.wrQLenPdf::14                     0                       # What write queue length does an incoming req see
system.mem_ctrls1.wrQLenPdf::15                     0                       # What write queue length does an incoming req see
system.mem_ctrls1.wrQLenPdf::16                     0                       # What write queue length does an incoming req see
system.mem_ctrls1.wrQLenPdf::17                     0                       # What write queue length does an incoming req see
system.mem_ctrls1.wrQLenPdf::18                     0                       # What write queue length does an incoming req see
system.mem_ctrls1.wrQLenPdf::19                     0                       # What write queue length does an incoming req see
system.mem_ctrls1.wrQLenPdf::20                     0                       # What write queue length does an incoming req see
system.mem_ctrls1.wrQLenPdf::21                     0                       # What write queue length does an incoming req see
system.mem_ctrls1.wrQLenPdf::22                     0                       # What write queue length does an incoming req see
system.mem_ctrls1.wrQLenPdf::23                     0                       # What write queue length does an incoming req see
system.mem_ctrls1.wrQLenPdf::24                     0                       # What write queue length does an incoming req see
system.mem_ctrls1.wrQLenPdf::25                     0                       # What write queue length does an incoming req see
system.mem_ctrls1.wrQLenPdf::26                     0                       # What write queue length does an incoming req see
system.mem_ctrls1.wrQLenPdf::27                     0                       # What write queue length does an incoming req see
system.mem_ctrls1.wrQLenPdf::28                     0                       # What write queue length does an incoming req see
system.mem_ctrls1.wrQLenPdf::29                     0                       # What write queue length does an incoming req see
system.mem_ctrls1.wrQLenPdf::30                     0                       # What write queue length does an incoming req see
system.mem_ctrls1.wrQLenPdf::31                     0                       # What write queue length does an incoming req see
system.mem_ctrls1.wrQLenPdf::32                     0                       # What write queue length does an incoming req see
system.mem_ctrls1.wrQLenPdf::33                     0                       # What write queue length does an incoming req see
system.mem_ctrls1.wrQLenPdf::34                     0                       # What write queue length does an incoming req see
system.mem_ctrls1.wrQLenPdf::35                     0                       # What write queue length does an incoming req see
system.mem_ctrls1.wrQLenPdf::36                     0                       # What write queue length does an incoming req see
system.mem_ctrls1.wrQLenPdf::37                     0                       # What write queue length does an incoming req see
system.mem_ctrls1.wrQLenPdf::38                     0                       # What write queue length does an incoming req see
system.mem_ctrls1.wrQLenPdf::39                     0                       # What write queue length does an incoming req see
system.mem_ctrls1.wrQLenPdf::40                     0                       # What write queue length does an incoming req see
system.mem_ctrls1.wrQLenPdf::41                     0                       # What write queue length does an incoming req see
system.mem_ctrls1.wrQLenPdf::42                     0                       # What write queue length does an incoming req see
system.mem_ctrls1.wrQLenPdf::43                     0                       # What write queue length does an incoming req see
system.mem_ctrls1.wrQLenPdf::44                     0                       # What write queue length does an incoming req see
system.mem_ctrls1.wrQLenPdf::45                     0                       # What write queue length does an incoming req see
system.mem_ctrls1.wrQLenPdf::46                     0                       # What write queue length does an incoming req see
system.mem_ctrls1.wrQLenPdf::47                     0                       # What write queue length does an incoming req see
system.mem_ctrls1.wrQLenPdf::48                     0                       # What write queue length does an incoming req see
system.mem_ctrls1.wrQLenPdf::49                     0                       # What write queue length does an incoming req see
system.mem_ctrls1.wrQLenPdf::50                     0                       # What write queue length does an incoming req see
system.mem_ctrls1.wrQLenPdf::51                     0                       # What write queue length does an incoming req see
system.mem_ctrls1.wrQLenPdf::52                     0                       # What write queue length does an incoming req see
system.mem_ctrls1.wrQLenPdf::53                     0                       # What write queue length does an incoming req see
system.mem_ctrls1.wrQLenPdf::54                     0                       # What write queue length does an incoming req see
system.mem_ctrls1.wrQLenPdf::55                     0                       # What write queue length does an incoming req see
system.mem_ctrls1.wrQLenPdf::56                     0                       # What write queue length does an incoming req see
system.mem_ctrls1.wrQLenPdf::57                     0                       # What write queue length does an incoming req see
system.mem_ctrls1.wrQLenPdf::58                     0                       # What write queue length does an incoming req see
system.mem_ctrls1.wrQLenPdf::59                     0                       # What write queue length does an incoming req see
system.mem_ctrls1.wrQLenPdf::60                     0                       # What write queue length does an incoming req see
system.mem_ctrls1.wrQLenPdf::61                     0                       # What write queue length does an incoming req see
system.mem_ctrls1.wrQLenPdf::62                     0                       # What write queue length does an incoming req see
system.mem_ctrls1.wrQLenPdf::63                     0                       # What write queue length does an incoming req see
system.mem_ctrls1.bytesPerActivate::samples        20320                       # Bytes accessed per row activation
system.mem_ctrls1.bytesPerActivate::mean   151.319685                       # Bytes accessed per row activation
system.mem_ctrls1.bytesPerActivate::gmean    97.693669                       # Bytes accessed per row activation
system.mem_ctrls1.bytesPerActivate::stdev   214.656635                       # Bytes accessed per row activation
system.mem_ctrls1.bytesPerActivate::0-127        13613     66.99%     66.99% # Bytes accessed per row activation
system.mem_ctrls1.bytesPerActivate::128-255         4218     20.76%     87.75% # Bytes accessed per row activation
system.mem_ctrls1.bytesPerActivate::256-383          218      1.07%     88.82% # Bytes accessed per row activation
system.mem_ctrls1.bytesPerActivate::384-511          502      2.47%     91.29% # Bytes accessed per row activation
system.mem_ctrls1.bytesPerActivate::512-639          635      3.12%     94.42% # Bytes accessed per row activation
system.mem_ctrls1.bytesPerActivate::640-767          280      1.38%     95.80% # Bytes accessed per row activation
system.mem_ctrls1.bytesPerActivate::768-895           58      0.29%     96.08% # Bytes accessed per row activation
system.mem_ctrls1.bytesPerActivate::896-1023           51      0.25%     96.33% # Bytes accessed per row activation
system.mem_ctrls1.bytesPerActivate::1024-1151          745      3.67%    100.00% # Bytes accessed per row activation
system.mem_ctrls1.bytesPerActivate::total        20320                       # Bytes accessed per row activation
system.mem_ctrls1.totQLat                  1226765835                       # Total ticks spent queuing
system.mem_ctrls1.totMemAccLat             2127590835                       # Total ticks spent from burst creation until serviced by the DRAM
system.mem_ctrls1.totBusLat                 240220000                       # Total ticks spent in databus transfers
system.mem_ctrls1.avgQLat                    25534.22                       # Average queueing delay per DRAM burst
system.mem_ctrls1.avgBusLat                   5000.00                       # Average bus latency per DRAM burst
system.mem_ctrls1.avgMemAccLat               44284.22                       # Average memory access latency per DRAM burst
system.mem_ctrls1.avgRdBW                       90.57                       # Average DRAM read bandwidth in MiByte/s
system.mem_ctrls1.avgWrBW                        0.00                       # Average achieved write bandwidth in MiByte/s
system.mem_ctrls1.avgRdBWSys                    90.57                       # Average system read bandwidth in MiByte/s
system.mem_ctrls1.avgWrBWSys                     0.00                       # Average system write bandwidth in MiByte/s
system.mem_ctrls1.peakBW                     12800.00                       # Theoretical peak bandwidth in MiByte/s
system.mem_ctrls1.busUtil                        0.71                       # Data bus utilization in percentage
system.mem_ctrls1.busUtilRead                    0.71                       # Data bus utilization in percentage for reads
system.mem_ctrls1.busUtilWrite                   0.00                       # Data bus utilization in percentage for writes
system.mem_ctrls1.avgRdQLen                      1.14                       # Average read queue length when enqueuing
system.mem_ctrls1.avgWrQLen                      0.00                       # Average write queue length when enqueuing
system.mem_ctrls1.readRowHits                   27724                       # Number of row buffer hits during reads
system.mem_ctrls1.writeRowHits                      0                       # Number of row buffer hits during writes
system.mem_ctrls1.readRowHitRate                57.71                       # Row buffer hit rate for reads
system.mem_ctrls1.writeRowHitRate                 nan                       # Row buffer hit rate for writes
system.mem_ctrls1.avgGap                    434341.89                       # Average gap between requests
system.mem_ctrls1.pageHitRate                   57.71                       # Row buffer hit rate, read and write combined
system.mem_ctrls1_0.actEnergy                78440040                       # Energy for activate commands per rank (pJ)
system.mem_ctrls1_0.preEnergy                41691870                       # Energy for precharge commands per rank (pJ)
system.mem_ctrls1_0.readEnergy              180492060                       # Energy for read commands per rank (pJ)
system.mem_ctrls1_0.writeEnergy                     0                       # Energy for write commands per rank (pJ)
system.mem_ctrls1_0.refreshEnergy        314081040.000000                       # Energy for refresh commands per rank (pJ)
system.mem_ctrls1_0.actBackEnergy           400806900                       # Energy for active background per rank (pJ)
system.mem_ctrls1_0.preBackEnergy            14159040                       # Energy for precharge background per rank (pJ)
system.mem_ctrls1_0.actPowerDownEnergy     1311469110                       # Energy for active power-down per rank (pJ)
system.mem_ctrls1_0.prePowerDownEnergy       49603680                       # Energy for precharge power-down per rank (pJ)
system.mem_ctrls1_0.selfRefreshEnergy      7211638320                       # Energy for self refresh per rank (pJ)
system.mem_ctrls1_0.totalEnergy            9602382060                       # Total energy per rank (pJ)
system.mem_ctrls1_0.averagePower           282.829569                       # Core power per rank (mW)
system.mem_ctrls1_0.totalIdleTime         19964482625                       # Total Idle time Per DRAM Rank
system.mem_ctrls1_0.memoryStateTime::IDLE      4879965                       # Time in different power states
system.mem_ctrls1_0.memoryStateTime::REF    132914000                       # Time in different power states
system.mem_ctrls1_0.memoryStateTime::SREF  30030086807                       # Time in different power states
system.mem_ctrls1_0.memoryStateTime::PRE_PDN    129169704                       # Time in different power states
system.mem_ctrls1_0.memoryStateTime::ACT    778006228                       # Time in different power states
system.mem_ctrls1_0.memoryStateTime::ACT_PDN   2876067853                       # Time in different power states
system.mem_ctrls1_1.actEnergy                66644760                       # Energy for activate commands per rank (pJ)
system.mem_ctrls1_1.preEnergy                35422530                       # Energy for precharge commands per rank (pJ)
system.mem_ctrls1_1.readEnergy              162542100                       # Energy for read commands per rank (pJ)
system.mem_ctrls1_1.writeEnergy                     0                       # Energy for write commands per rank (pJ)
system.mem_ctrls1_1.refreshEnergy        285807600.000000                       # Energy for refresh commands per rank (pJ)
system.mem_ctrls1_1.actBackEnergy           352459500                       # Energy for active background per rank (pJ)
system.mem_ctrls1_1.preBackEnergy            12210240                       # Energy for precharge background per rank (pJ)
system.mem_ctrls1_1.actPowerDownEnergy     1183926480                       # Energy for active power-down per rank (pJ)
system.mem_ctrls1_1.prePowerDownEnergy       56564160                       # Energy for precharge power-down per rank (pJ)
system.mem_ctrls1_1.selfRefreshEnergy      7302184200                       # Energy for self refresh per rank (pJ)
system.mem_ctrls1_1.totalEnergy            9457761570                       # Total energy per rank (pJ)
system.mem_ctrls1_1.averagePower           278.569902                       # Core power per rank (mW)
system.mem_ctrls1_1.totalIdleTime         20069078504                       # Total Idle time Per DRAM Rank
system.mem_ctrls1_1.memoryStateTime::IDLE      5277053                       # Time in different power states
system.mem_ctrls1_1.memoryStateTime::REF    120966000                       # Time in different power states
system.mem_ctrls1_1.memoryStateTime::SREF  30402754807                       # Time in different power states
system.mem_ctrls1_1.memoryStateTime::PRE_PDN    147263079                       # Time in different power states
system.mem_ctrls1_1.memoryStateTime::ACT    678570614                       # Time in different power states
system.mem_ctrls1_1.memoryStateTime::ACT_PDN   2596293004                       # Time in different power states
system.pwrStateResidencyTicks::UNDEFINED  33951124557                       # Cumulative time (in ticks) in various power states
system.cpu0.branchPred.lookups                6689041                       # Number of BP lookups
system.cpu0.branchPred.condPredicted          6689041                       # Number of conditional branches predicted
system.cpu0.branchPred.condIncorrect             2731                       # Number of conditional branches incorrect
system.cpu0.branchPred.BTBLookups             6030457                       # Number of BTB lookups
system.cpu0.branchPred.BTBHits                      0                       # Number of BTB hits
system.cpu0.branchPred.BTBCorrect                   0                       # Number of correct BTB predictions (this stat may not work properly.
system.cpu0.branchPred.BTBHitPct             0.000000                       # BTB Hit Percentage
system.cpu0.branchPred.usedRAS                 610236                       # Number of times the RAS was used to get a target.
system.cpu0.branchPred.RASInCorrect               593                       # Number of incorrect RAS predictions.
system.cpu0.branchPred.indirectLookups        6030457                       # Number of indirect predictor lookups.
system.cpu0.branchPred.indirectHits           4365388                       # Number of indirect target hits.
system.cpu0.branchPred.indirectMisses         1665069                       # Number of indirect misses.
system.cpu0.branchPredindirectMispredicted         1815                       # Number of mispredicted indirect branches.
system.cpu_voltage_domain.voltage                   1                       # Voltage in Volts
system.cpu_clk_domain.clock                       333                       # Clock period in ticks
system.cpu0.dtb.walker.pwrStateResidencyTicks::UNDEFINED  33951124557                       # Cumulative time (in ticks) in various power states
system.cpu0.apic_clk_domain.clock                5328                       # Clock period in ticks
system.cpu0.interrupts.pwrStateResidencyTicks::UNDEFINED  33951124557                       # Cumulative time (in ticks) in various power states
system.cpu0.itb.walker.pwrStateResidencyTicks::UNDEFINED  33951124557                       # Cumulative time (in ticks) in various power states
system.cpu0.workload.num_syscalls                  16                       # Number of system calls
system.cpu0.pwrStateResidencyTicks::ON    33951124557                       # Cumulative time (in ticks) in various power states
system.cpu0.numCycles                       101955330                       # number of cpu cycles simulated
system.cpu0.numWorkItemsStarted                     0                       # number of work items this cpu started
system.cpu0.numWorkItemsCompleted                   0                       # number of work items this cpu completed
system.cpu0.fetch.icacheStallCycles          34118804                       # Number of cycles fetch is stalled on an Icache miss
system.cpu0.fetch.Insts                      99950090                       # Number of instructions fetch has processed
system.cpu0.fetch.Branches                    6689041                       # Number of branches that fetch encountered
system.cpu0.fetch.predictedBranches           4975624                       # Number of branches that fetch has predicted taken
system.cpu0.fetch.Cycles                     67662764                       # Number of cycles fetch has run and was not squashing or blocked
system.cpu0.fetch.SquashCycles                   7448                       # Number of cycles fetch has spent squashing
system.cpu0.fetch.MiscStallCycles                 187                       # Number of cycles fetch has spent waiting on interrupts, or bad addresses, or out of MSHRs
system.cpu0.fetch.PendingTrapStallCycles         1380                       # Number of stall cycles due to pending traps
system.cpu0.fetch.PendingQuiesceStallCycles            7                       # Number of stall cycles due to pending quiesce instructions
system.cpu0.fetch.CacheLines                 11353533                       # Number of cache lines fetched
system.cpu0.fetch.IcacheSquashes                 1978                       # Number of outstanding Icache misses that were squashed
system.cpu0.fetch.rateDist::samples         101786866                       # Number of instructions fetched each cycle (Total)
system.cpu0.fetch.rateDist::mean             1.452108                       # Number of instructions fetched each cycle (Total)
system.cpu0.fetch.rateDist::stdev            2.857980                       # Number of instructions fetched each cycle (Total)
system.cpu0.fetch.rateDist::underflows              0      0.00%      0.00% # Number of instructions fetched each cycle (Total)
system.cpu0.fetch.rateDist::0                77290240     75.93%     75.93% # Number of instructions fetched each cycle (Total)
system.cpu0.fetch.rateDist::1                 1772167      1.74%     77.67% # Number of instructions fetched each cycle (Total)
system.cpu0.fetch.rateDist::2                 1890844      1.86%     79.53% # Number of instructions fetched each cycle (Total)
system.cpu0.fetch.rateDist::3                 1981843      1.95%     81.48% # Number of instructions fetched each cycle (Total)
system.cpu0.fetch.rateDist::4                 1453000      1.43%     82.91% # Number of instructions fetched each cycle (Total)
system.cpu0.fetch.rateDist::5                 1662879      1.63%     84.54% # Number of instructions fetched each cycle (Total)
system.cpu0.fetch.rateDist::6                 1275728      1.25%     85.79% # Number of instructions fetched each cycle (Total)
system.cpu0.fetch.rateDist::7                 1155933      1.14%     86.93% # Number of instructions fetched each cycle (Total)
system.cpu0.fetch.rateDist::8                13304232     13.07%    100.00% # Number of instructions fetched each cycle (Total)
system.cpu0.fetch.rateDist::overflows               0      0.00%    100.00% # Number of instructions fetched each cycle (Total)
system.cpu0.fetch.rateDist::min_value               0                       # Number of instructions fetched each cycle (Total)
system.cpu0.fetch.rateDist::max_value               8                       # Number of instructions fetched each cycle (Total)
system.cpu0.fetch.rateDist::total           101786866                       # Number of instructions fetched each cycle (Total)
system.cpu0.fetch.branchRate                 0.065608                       # Number of branch fetches per cycle
system.cpu0.fetch.rate                       0.980332                       # Number of inst fetches per cycle
system.cpu0.decode.IdleCycles                23740411                       # Number of cycles decode is idle
system.cpu0.decode.BlockedCycles             55586339                       # Number of cycles decode is blocked
system.cpu0.decode.RunCycles                 18401754                       # Number of cycles decode is running
system.cpu0.decode.UnblockCycles              4054638                       # Number of cycles decode is unblocking
system.cpu0.decode.SquashCycles                  3724                       # Number of cycles decode is squashing
system.cpu0.decode.DecodedInsts             147787699                       # Number of instructions handled by decode
system.cpu0.rename.SquashCycles                  3724                       # Number of cycles rename is squashing
system.cpu0.rename.IdleCycles                25986296                       # Number of cycles rename is idle
system.cpu0.rename.BlockCycles               24073309                       # Number of cycles rename is blocking
system.cpu0.rename.serializeStallCycles           963                       # count of cycles rename stalled for serializing inst
system.cpu0.rename.RunCycles                 20053866                       # Number of cycles rename is running
system.cpu0.rename.UnblockCycles             31668708                       # Number of cycles rename is unblocking
system.cpu0.rename.RenamedInsts             147777358                       # Number of instructions processed by rename
system.cpu0.rename.ROBFullEvents                  347                       # Number of times rename has blocked due to ROB full
system.cpu0.rename.IQFullEvents               5982578                       # Number of times rename has blocked due to IQ full
system.cpu0.rename.LQFullEvents              23654447                       # Number of times rename has blocked due to LQ full
system.cpu0.rename.SQFullEvents                709837                       # Number of times rename has blocked due to SQ full
system.cpu0.rename.RenamedOperands          163470872                       # Number of destination operands rename has renamed
system.cpu0.rename.RenameLookups            348121258                       # Number of register rename lookups that rename has made
system.cpu0.rename.int_rename_lookups       163593580                       # Number of integer rename lookups
system.cpu0.rename.fp_rename_lookups        104419606                       # Number of floating rename lookups
system.cpu0.rename.CommittedMaps            163370184                       # Number of HB maps that are committed
system.cpu0.rename.UndoneMaps                  100545                       # Number of HB maps that are undone due to squashing
system.cpu0.rename.serializingInsts                20                       # count of serializing insts renamed
system.cpu0.rename.tempSerializingInsts            18                       # count of temporary serializing insts renamed
system.cpu0.rename.skidInsts                 28679111                       # count of insts added to the skid buffer
system.cpu0.memDep0.insertedLoads            29027550                       # Number of loads inserted to the mem dependence unit.
system.cpu0.memDep0.insertedStores            8019758                       # Number of stores inserted to the mem dependence unit.
system.cpu0.memDep0.conflictingLoads          6727470                       # Number of conflicting loads.
system.cpu0.memDep0.conflictingStores         1624389                       # Number of conflicting stores.
system.cpu0.iq.iqInstsAdded                 147761595                       # Number of instructions added to the IQ (excludes non-spec)
system.cpu0.iq.iqNonSpecInstsAdded                495                       # Number of non-speculative instructions added to the IQ
system.cpu0.iq.iqInstsIssued                149122191                       # Number of instructions issued
system.cpu0.iq.iqSquashedInstsIssued              119                       # Number of squashed instructions issued
system.cpu0.iq.iqSquashedInstsExamined          79084                       # Number of squashed instructions iterated over during squash; mainly for profiling
system.cpu0.iq.iqSquashedOperandsExamined        87185                       # Number of squashed operands that are examined and possibly removed from graph
system.cpu0.iq.iqSquashedNonSpecRemoved           443                       # Number of squashed non-spec instructions that were removed
system.cpu0.iq.issued_per_cycle::samples    101786866                       # Number of insts issued each cycle
system.cpu0.iq.issued_per_cycle::mean        1.465044                       # Number of insts issued each cycle
system.cpu0.iq.issued_per_cycle::stdev       1.806214                       # Number of insts issued each cycle
system.cpu0.iq.issued_per_cycle::underflows            0      0.00%      0.00% # Number of insts issued each cycle
system.cpu0.iq.issued_per_cycle::0           46153526     45.34%     45.34% # Number of insts issued each cycle
system.cpu0.iq.issued_per_cycle::1           15829644     15.55%     60.90% # Number of insts issued each cycle
[...]
system.l3.demand_mshr_miss_latency::cpu2.data   1950201586                       # number of demand (read+write) MSHR miss cycles
system.l3.demand_mshr_miss_latency::cpu3.inst     94519758                       # number of demand (read+write) MSHR miss cycles
system.l3.demand_mshr_miss_latency::cpu3.data   2075062847                       # number of demand (read+write) MSHR miss cycles
system.l3.demand_mshr_miss_latency::total   8443740987                       # number of demand (read+write) MSHR miss cycles
system.l3.overall_mshr_miss_latency::cpu0.inst     90397519                       # number of overall MSHR miss cycles
system.l3.overall_mshr_miss_latency::cpu0.data   2100584635                       # number of overall MSHR miss cycles
system.l3.overall_mshr_miss_latency::cpu1.inst     96232622                       # number of overall MSHR miss cycles
system.l3.overall_mshr_miss_latency::cpu1.data   1945050520                       # number of overall MSHR miss cycles
system.l3.overall_mshr_miss_latency::cpu2.inst     91691500                       # number of overall MSHR miss cycles
system.l3.overall_mshr_miss_latency::cpu2.data   1950201586                       # number of overall MSHR miss cycles
system.l3.overall_mshr_miss_latency::cpu3.inst     94519758                       # number of overall MSHR miss cycles
system.l3.overall_mshr_miss_latency::cpu3.data   2075062847                       # number of overall MSHR miss cycles
system.l3.overall_mshr_miss_latency::total   8443740987                       # number of overall MSHR miss cycles
system.l3.ReadExReq_mshr_miss_rate::cpu0.data     0.999737                       # mshr miss rate for ReadExReq accesses
system.l3.ReadExReq_mshr_miss_rate::cpu1.data     0.999780                       # mshr miss rate for ReadExReq accesses
system.l3.ReadExReq_mshr_miss_rate::cpu2.data     0.999780                       # mshr miss rate for ReadExReq accesses
system.l3.ReadExReq_mshr_miss_rate::cpu3.data     0.999868                       # mshr miss rate for ReadExReq accesses
system.l3.ReadExReq_mshr_miss_rate::total     0.999791                       # mshr miss rate for ReadExReq accesses
system.l3.ReadSharedReq_mshr_miss_rate::cpu0.inst     0.995349                       # mshr miss rate for ReadSharedReq accesses
system.l3.ReadSharedReq_mshr_miss_rate::cpu0.data     0.000747                       # mshr miss rate for ReadSharedReq accesses
system.l3.ReadSharedReq_mshr_miss_rate::cpu1.inst     0.995375                       # mshr miss rate for ReadSharedReq accesses
system.l3.ReadSharedReq_mshr_miss_rate::cpu1.data     0.000746                       # mshr miss rate for ReadSharedReq accesses
system.l3.ReadSharedReq_mshr_miss_rate::cpu2.inst     0.995340                       # mshr miss rate for ReadSharedReq accesses
system.l3.ReadSharedReq_mshr_miss_rate::cpu2.data     0.000727                       # mshr miss rate for ReadSharedReq accesses
system.l3.ReadSharedReq_mshr_miss_rate::cpu3.inst     0.995362                       # mshr miss rate for ReadSharedReq accesses
system.l3.ReadSharedReq_mshr_miss_rate::cpu3.data     0.000732                       # mshr miss rate for ReadSharedReq accesses
system.l3.ReadSharedReq_mshr_miss_rate::total     0.004844                       # mshr miss rate for ReadSharedReq accesses
system.l3.demand_mshr_miss_rate::cpu0.inst     0.995349                       # mshr miss rate for demand accesses
system.l3.demand_mshr_miss_rate::cpu0.data     0.081332                       # mshr miss rate for demand accesses
system.l3.demand_mshr_miss_rate::cpu1.inst     0.995375                       # mshr miss rate for demand accesses
system.l3.demand_mshr_miss_rate::cpu1.data     0.081238                       # mshr miss rate for demand accesses
system.l3.demand_mshr_miss_rate::cpu2.inst     0.995340                       # mshr miss rate for demand accesses
system.l3.demand_mshr_miss_rate::cpu2.data     0.081260                       # mshr miss rate for demand accesses
system.l3.demand_mshr_miss_rate::cpu3.inst     0.995362                       # mshr miss rate for demand accesses
system.l3.demand_mshr_miss_rate::cpu3.data     0.081291                       # mshr miss rate for demand accesses
system.l3.demand_mshr_miss_rate::total       0.084751                       # mshr miss rate for demand accesses
system.l3.overall_mshr_miss_rate::cpu0.inst     0.995349                       # mshr miss rate for overall accesses
system.l3.overall_mshr_miss_rate::cpu0.data     0.081332                       # mshr miss rate for overall accesses
system.l3.overall_mshr_miss_rate::cpu1.inst     0.995375                       # mshr miss rate for overall accesses
system.l3.overall_mshr_miss_rate::cpu1.data     0.081238                       # mshr miss rate for overall accesses
system.l3.overall_mshr_miss_rate::cpu2.inst     0.995340                       # mshr miss rate for overall accesses
system.l3.overall_mshr_miss_rate::cpu2.data     0.081260                       # mshr miss rate for overall accesses
system.l3.overall_mshr_miss_rate::cpu3.inst     0.995362                       # mshr miss rate for overall accesses
system.l3.overall_mshr_miss_rate::cpu3.data     0.081291                       # mshr miss rate for overall accesses
system.l3.overall_mshr_miss_rate::total      0.084751                       # mshr miss rate for overall accesses
system.l3.ReadExReq_avg_mshr_miss_latency::cpu0.data 91396.172844                       # average ReadExReq mshr miss latency
system.l3.ReadExReq_avg_mshr_miss_latency::cpu1.data 84579.490667                       # average ReadExReq mshr miss latency
system.l3.ReadExReq_avg_mshr_miss_latency::cpu2.data 84810.562088                       # average ReadExReq mshr miss latency
system.l3.ReadExReq_avg_mshr_miss_latency::cpu3.data 90292.297264                       # average ReadExReq mshr miss latency
system.l3.ReadExReq_avg_mshr_miss_latency::total 87769.643117                       # average ReadExReq mshr miss latency
system.l3.ReadSharedReq_avg_mshr_miss_latency::cpu0.inst 84483.662617                       # average ReadSharedReq mshr miss latency
system.l3.ReadSharedReq_avg_mshr_miss_latency::cpu0.data 99541.170103                       # average ReadSharedReq mshr miss latency
system.l3.ReadSharedReq_avg_mshr_miss_latency::cpu1.inst 89435.522305                       # average ReadSharedReq mshr miss latency
system.l3.ReadSharedReq_avg_mshr_miss_latency::cpu1.data 99278.850515                       # average ReadSharedReq mshr miss latency
system.l3.ReadSharedReq_avg_mshr_miss_latency::cpu2.inst 85853.464419                       # average ReadSharedReq mshr miss latency
system.l3.ReadSharedReq_avg_mshr_miss_latency::cpu2.data 99078.544974                       # average ReadSharedReq mshr miss latency
system.l3.ReadSharedReq_avg_mshr_miss_latency::cpu3.inst 88089.243243                       # average ReadSharedReq mshr miss latency
system.l3.ReadSharedReq_avg_mshr_miss_latency::cpu3.data 100089.189474                       # average ReadSharedReq mshr miss latency
system.l3.ReadSharedReq_avg_mshr_miss_latency::total 88871.245350                       # average ReadSharedReq mshr miss latency
system.l3.demand_avg_mshr_miss_latency::cpu0.inst 84483.662617                       # average overall mshr miss latency
system.l3.demand_avg_mshr_miss_latency::cpu0.data 91464.975834                       # average overall mshr miss latency
system.l3.demand_avg_mshr_miss_latency::cpu1.inst 89435.522305                       # average overall mshr miss latency
system.l3.demand_avg_mshr_miss_latency::cpu1.data 84703.676349                       # average overall mshr miss latency
system.l3.demand_avg_mshr_miss_latency::cpu2.inst 85853.464419                       # average overall mshr miss latency
system.l3.demand_avg_mshr_miss_latency::cpu2.data 84927.996603                       # average overall mshr miss latency
system.l3.demand_avg_mshr_miss_latency::cpu3.inst 88089.243243                       # average overall mshr miss latency
system.l3.demand_avg_mshr_miss_latency::cpu3.data 90373.365576                       # average overall mshr miss latency
system.l3.demand_avg_mshr_miss_latency::total 87827.553432                       # average overall mshr miss latency
system.l3.overall_avg_mshr_miss_latency::cpu0.inst 84483.662617                       # average overall mshr miss latency
system.l3.overall_avg_mshr_miss_latency::cpu0.data 91464.975834                       # average overall mshr miss latency
system.l3.overall_avg_mshr_miss_latency::cpu1.inst 89435.522305                       # average overall mshr miss latency
system.l3.overall_avg_mshr_miss_latency::cpu1.data 84703.676349                       # average overall mshr miss latency
system.l3.overall_avg_mshr_miss_latency::cpu2.inst 85853.464419                       # average overall mshr miss latency
system.l3.overall_avg_mshr_miss_latency::cpu2.data 84927.996603                       # average overall mshr miss latency
system.l3.overall_avg_mshr_miss_latency::cpu3.inst 88089.243243                       # average overall mshr miss latency
system.l3.overall_avg_mshr_miss_latency::cpu3.data 90373.365576                       # average overall mshr miss latency
system.l3.overall_avg_mshr_miss_latency::total 87827.553432                       # average overall mshr miss latency
system.membus.snoop_filter.tot_requests         96140                       # Total number of requests made to the snoop filter.
system.membus.snoop_filter.hit_single_requests            0                       # Number of requests hitting in the snoop filter with a single holder of the requested data.
system.membus.snoop_filter.hit_multi_requests            0                       # Number of requests hitting in the snoop filter with multiple (>1) holders of the requested data.
system.membus.snoop_filter.tot_snoops               0                       # Total number of snoops made to the snoop filter.
system.membus.snoop_filter.hit_single_snoops            0                       # Number of snoops hitting in the snoop filter with a single holder of the requested data.
system.membus.snoop_filter.hit_multi_snoops            0                       # Number of snoops hitting in the snoop filter with multiple (>1) holders of the requested data.
system.membus.pwrStateResidencyTicks::UNDEFINED  33951124557                       # Cumulative time (in ticks) in various power states
system.membus.trans_dist::ReadResp               5054                       # Transaction distribution
system.membus.trans_dist::ReadExReq             91086                       # Transaction distribution
system.membus.trans_dist::ReadExResp            91086                       # Transaction distribution
system.membus.trans_dist::ReadSharedReq          5054                       # Transaction distribution
system.membus.pkt_count_system.l3.mem_side::system.mem_ctrls0.port        96192                       # Packet count per connected master and slave (bytes)
system.membus.pkt_count_system.l3.mem_side::system.mem_ctrls1.port        96088                       # Packet count per connected master and slave (bytes)
system.membus.pkt_count_system.l3.mem_side::total       192280                       # Packet count per connected master and slave (bytes)
system.membus.pkt_count::total                 192280                       # Packet count per connected master and slave (bytes)
system.membus.pkt_size_system.l3.mem_side::system.mem_ctrls0.port      3078144                       # Cumulative packet size per connected master and slave (bytes)
system.membus.pkt_size_system.l3.mem_side::system.mem_ctrls1.port      3074816                       # Cumulative packet size per connected master and slave (bytes)
system.membus.pkt_size_system.l3.mem_side::total      6152960                       # Cumulative packet size per connected master and slave (bytes)
system.membus.pkt_size::total                 6152960                       # Cumulative packet size per connected master and slave (bytes)
system.membus.snoops                                0                       # Total snoops (count)
system.membus.snoopTraffic                          0                       # Total snoop traffic (bytes)
system.membus.snoop_fanout::samples             96140                       # Request fanout histogram
system.membus.snoop_fanout::mean                    0                       # Request fanout histogram
system.membus.snoop_fanout::stdev                   0                       # Request fanout histogram
system.membus.snoop_fanout::underflows              0      0.00%      0.00% # Request fanout histogram
system.membus.snoop_fanout::0                   96140    100.00%    100.00% # Request fanout histogram
system.membus.snoop_fanout::1                       0      0.00%    100.00% # Request fanout histogram
system.membus.snoop_fanout::overflows               0      0.00%    100.00% # Request fanout histogram
system.membus.snoop_fanout::min_value               0                       # Request fanout histogram
system.membus.snoop_fanout::max_value               0                       # Request fanout histogram
system.membus.snoop_fanout::total               96140                       # Request fanout histogram
system.membus.reqLayer8.occupancy            73210302                       # Layer occupancy (ticks)
system.membus.reqLayer8.utilization               0.2                       # Layer utilization (%)
system.membus.reqLayer9.occupancy            73077322                       # Layer occupancy (ticks)
system.membus.reqLayer9.utilization               0.2                       # Layer utilization (%)
system.membus.respLayer1.occupancy          517075137                       # Layer occupancy (ticks)
system.membus.respLayer1.utilization              1.5                       # Layer utilization (%)
system.tol3bus.snoop_filter.tot_requests      2250376                       # Total number of requests made to the snoop filter.
system.tol3bus.snoop_filter.hit_single_requests      1115990                       # Number of requests hitting in the snoop filter with a single holder of the requested data.
system.tol3bus.snoop_filter.hit_multi_requests            0                       # Number of requests hitting in the snoop filter with multiple (>1) holders of the requested data.
system.tol3bus.snoop_filter.tot_snoops              1                       # Total number of snoops made to the snoop filter.
system.tol3bus.snoop_filter.hit_single_snoops            1                       # Number of snoops hitting in the snoop filter with a single holder of the requested data.
system.tol3bus.snoop_filter.hit_multi_snoops            0                       # Number of snoops hitting in the snoop filter with multiple (>1) holders of the requested data.
system.tol3bus.pwrStateResidencyTicks::UNDEFINED  33951124557                       # Cumulative time (in ticks) in various power states
system.tol3bus.trans_dist::ReadResp           1043281                       # Transaction distribution
system.tol3bus.trans_dist::WritebackDirty      1113135                       # Transaction distribution
system.tol3bus.trans_dist::CleanEvict            2856                       # Transaction distribution
system.tol3bus.trans_dist::ReadExReq            91105                       # Transaction distribution
system.tol3bus.trans_dist::ReadExResp           91105                       # Transaction distribution
system.tol3bus.trans_dist::ReadSharedReq      1043281                       # Transaction distribution
system.tol3bus.pkt_count_system.cpu0.l2.mem_side::system.l3.cpu_side       845746                       # Packet count per connected master and slave (bytes)
system.tol3bus.pkt_count_system.cpu1.l2.mem_side::system.l3.cpu_side       846635                       # Packet count per connected master and slave (bytes)
system.tol3bus.pkt_count_system.cpu2.l2.mem_side::system.l3.cpu_side       846380                       # Packet count per connected master and slave (bytes)
system.tol3bus.pkt_count_system.cpu3.l2.mem_side::system.l3.cpu_side       846001                       # Packet count per connected master and slave (bytes)
system.tol3bus.pkt_count::total               3384762                       # Packet count per connected master and slave (bytes)
system.tol3bus.pkt_size_system.cpu0.l2.mem_side::system.l3.cpu_side     35941312                       # Cumulative packet size per connected master and slave (bytes)
system.tol3bus.pkt_size_system.cpu1.l2.mem_side::system.l3.cpu_side     35979072                       # Cumulative packet size per connected master and slave (bytes)
system.tol3bus.pkt_size_system.cpu2.l2.mem_side::system.l3.cpu_side     35968768                       # Cumulative packet size per connected master and slave (bytes)
system.tol3bus.pkt_size_system.cpu3.l2.mem_side::system.l3.cpu_side     35952192                       # Cumulative packet size per connected master and slave (bytes)
system.tol3bus.pkt_size::total              143841344                       # Cumulative packet size per connected master and slave (bytes)
system.tol3bus.snoops                               1                       # Total snoops (count)
system.tol3bus.snoopTraffic                         0                       # Total snoop traffic (bytes)
system.tol3bus.snoop_fanout::samples          1134387                       # Request fanout histogram
system.tol3bus.snoop_fanout::mean            0.000001                       # Request fanout histogram
system.tol3bus.snoop_fanout::stdev           0.000939                       # Request fanout histogram
system.tol3bus.snoop_fanout::underflows             0      0.00%      0.00% # Request fanout histogram
system.tol3bus.snoop_fanout::0                1134386    100.00%    100.00% # Request fanout histogram
system.tol3bus.snoop_fanout::1                      1      0.00%    100.00% # Request fanout histogram
system.tol3bus.snoop_fanout::2                      0      0.00%    100.00% # Request fanout histogram
system.tol3bus.snoop_fanout::3                      0      0.00%    100.00% # Request fanout histogram
system.tol3bus.snoop_fanout::4                      0      0.00%    100.00% # Request fanout histogram
system.tol3bus.snoop_fanout::overflows              0      0.00%    100.00% # Request fanout histogram
system.tol3bus.snoop_fanout::min_value              0                       # Request fanout histogram
system.tol3bus.snoop_fanout::max_value              1                       # Request fanout histogram
system.tol3bus.snoop_fanout::total            1134387                       # Request fanout histogram
system.tol3bus.reqLayer0.occupancy         1120049163                       # Layer occupancy (ticks)
system.tol3bus.reqLayer0.utilization              3.3                       # Layer utilization (%)
system.tol3bus.respLayer0.occupancy         188887920                       # Layer occupancy (ticks)
system.tol3bus.respLayer0.utilization             0.6                       # Layer utilization (%)
system.tol3bus.respLayer1.occupancy         189057834                       # Layer occupancy (ticks)
system.tol3bus.respLayer1.utilization             0.6                       # Layer utilization (%)
system.tol3bus.respLayer2.occupancy         189012180                       # Layer occupancy (ticks)
system.tol3bus.respLayer2.utilization             0.6                       # Layer utilization (%)
system.tol3bus.respLayer3.occupancy         188925938                       # Layer occupancy (ticks)
system.tol3bus.respLayer3.utilization             0.6                       # Layer utilization (%)

---------- End Simulation Statistics   ----------
